*SPEF "ieee 1481-1999"
*DESIGN "macp_top"
*DATE "11:11:11 Fri 11 11, 1111"
*VENDOR "OpenRCX"
*PROGRAM "Parallel Extraction"
*VERSION "1.0"
*DESIGN_FLOW "NAME_SCOPE LOCAL" "PIN_CAP NONE"
*DIVIDER /
*DELIMITER :
*BUS_DELIMITER []
*T_UNIT 1 NS
*C_UNIT 1 PF
*R_UNIT 1 OHM
*L_UNIT 1 HENRY

*NAME_MAP
*1 la_data_in[0]
*2 la_data_in[10]
*3 la_data_in[11]
*4 la_data_in[12]
*5 la_data_in[13]
*6 la_data_in[14]
*7 la_data_in[15]
*8 la_data_in[1]
*9 la_data_in[2]
*10 la_data_in[3]
*11 la_data_in[4]
*12 la_data_in[5]
*13 la_data_in[6]
*14 la_data_in[7]
*15 la_data_in[8]
*16 la_data_in[9]
*17 la_data_out[0]
*18 la_data_out[10]
*19 la_data_out[11]
*20 la_data_out[12]
*21 la_data_out[13]
*22 la_data_out[14]
*23 la_data_out[15]
*24 la_data_out[1]
*25 la_data_out[2]
*26 la_data_out[3]
*27 la_data_out[4]
*28 la_data_out[5]
*29 la_data_out[6]
*30 la_data_out[7]
*31 la_data_out[8]
*32 la_data_out[9]
*35 wb_clk_i
*36 wb_rst_i
*37 _000_
*38 _001_
*39 _002_
*40 _003_
*41 _004_
*42 _005_
*43 _006_
*44 _007_
*45 _008_
*46 _009_
*47 _010_
*48 _011_
*49 _012_
*50 _013_
*51 _014_
*52 _015_
*53 _016_
*54 _017_
*55 _018_
*56 _019_
*57 _020_
*58 _021_
*59 _022_
*60 _023_
*61 _024_
*62 _025_
*63 _026_
*64 _027_
*65 _028_
*66 _029_
*67 _030_
*68 _031_
*69 _032_
*70 _033_
*71 _034_
*72 _035_
*73 _036_
*74 _037_
*75 _038_
*76 _039_
*77 _040_
*78 _041_
*79 _042_
*80 _043_
*81 _044_
*82 _045_
*83 _046_
*84 _047_
*85 _048_
*86 _049_
*87 _050_
*88 _051_
*89 _052_
*90 _053_
*91 _054_
*92 _055_
*93 _056_
*94 _057_
*95 _058_
*96 _059_
*97 _060_
*98 _061_
*99 _062_
*100 _063_
*101 _064_
*102 _065_
*103 _066_
*104 _067_
*105 _068_
*106 _069_
*107 _070_
*108 _071_
*109 _072_
*110 _073_
*111 _074_
*112 _075_
*113 _076_
*114 _077_
*115 _078_
*116 _079_
*117 _080_
*118 _081_
*119 _082_
*120 _083_
*121 _084_
*122 _085_
*123 _086_
*124 _087_
*125 _088_
*126 _089_
*127 _090_
*128 _091_
*129 _092_
*130 _093_
*131 _094_
*132 _095_
*133 _096_
*134 _097_
*135 _098_
*136 _099_
*137 _100_
*138 _101_
*139 _102_
*140 _103_
*141 _104_
*142 _105_
*143 _106_
*144 _107_
*145 _108_
*146 _109_
*147 _110_
*148 _111_
*149 _112_
*150 _113_
*151 _114_
*152 _115_
*153 _116_
*154 _117_
*155 _118_
*156 _119_
*157 _120_
*158 _121_
*159 _122_
*160 _123_
*161 _124_
*162 _125_
*163 _126_
*164 _127_
*165 _128_
*166 _129_
*167 _130_
*168 _131_
*169 _132_
*170 _133_
*171 _134_
*172 _135_
*173 _136_
*174 _137_
*175 _138_
*176 _139_
*177 _140_
*178 _141_
*179 _142_
*180 _143_
*181 _144_
*182 _145_
*183 _146_
*184 _147_
*185 _148_
*186 _149_
*187 _150_
*188 _151_
*189 _152_
*190 _153_
*191 _154_
*192 _155_
*193 _156_
*194 _157_
*195 _158_
*196 _159_
*197 _160_
*198 _161_
*199 _162_
*200 _163_
*201 _164_
*202 _165_
*203 _166_
*204 _167_
*205 _168_
*206 _169_
*207 _170_
*208 _171_
*209 _172_
*210 _173_
*211 _174_
*212 _175_
*213 _176_
*214 _177_
*215 _178_
*216 _179_
*217 _180_
*218 _181_
*219 _182_
*220 _183_
*221 _184_
*222 _185_
*223 _186_
*224 _187_
*225 _188_
*226 _189_
*227 _190_
*228 _191_
*229 _192_
*230 _193_
*231 _194_
*232 _195_
*233 _196_
*234 _197_
*235 _198_
*236 _199_
*237 _200_
*238 _201_
*239 _202_
*240 _203_
*241 _204_
*242 _205_
*243 _206_
*244 _207_
*245 _208_
*246 _209_
*247 _210_
*248 _211_
*249 _212_
*250 _213_
*251 _214_
*252 _215_
*253 _216_
*254 _217_
*255 _218_
*256 _219_
*257 _220_
*258 _221_
*259 _222_
*260 _223_
*261 _224_
*262 _225_
*263 _226_
*264 _227_
*265 _228_
*266 _229_
*267 _230_
*268 _231_
*269 _232_
*270 _233_
*271 _234_
*272 _235_
*273 _236_
*274 _237_
*275 _238_
*276 _239_
*277 _240_
*278 _241_
*279 _242_
*280 _243_
*281 _244_
*282 _245_
*283 _246_
*284 _247_
*285 _248_
*286 _249_
*287 _250_
*288 _251_
*289 _252_
*290 _253_
*291 _254_
*292 _255_
*293 _256_
*294 _257_
*295 _258_
*296 _259_
*297 _260_
*298 _261_
*299 _262_
*300 _263_
*301 _264_
*302 _265_
*303 _266_
*304 _267_
*305 _268_
*306 _269_
*307 _270_
*308 _271_
*309 _272_
*310 _273_
*311 _274_
*312 _275_
*313 _276_
*314 _277_
*315 _278_
*316 _279_
*317 _280_
*318 _281_
*319 _282_
*320 _283_
*321 _284_
*322 _285_
*323 _286_
*324 _287_
*325 _288_
*326 _289_
*327 _290_
*328 _291_
*329 _292_
*330 _293_
*331 _294_
*332 _295_
*333 _296_
*334 _297_
*335 _298_
*336 _299_
*337 _300_
*338 _301_
*339 _302_
*340 _303_
*341 _304_
*342 _305_
*343 _306_
*344 _307_
*345 _308_
*346 _309_
*347 _310_
*348 _311_
*349 _312_
*350 _313_
*351 _314_
*352 _315_
*353 _316_
*354 _317_
*355 _318_
*356 _319_
*357 _320_
*358 _321_
*359 _322_
*360 _323_
*361 _324_
*362 _325_
*363 _326_
*364 _327_
*365 _328_
*366 _329_
*367 _330_
*368 _331_
*369 _332_
*370 _333_
*371 _334_
*372 _335_
*373 _336_
*374 _337_
*375 _338_
*376 _339_
*377 _340_
*378 _341_
*379 _342_
*380 _343_
*381 _344_
*382 _345_
*383 _346_
*384 _347_
*385 _348_
*386 _349_
*387 _350_
*388 _351_
*389 _352_
*390 _353_
*391 _354_
*392 _355_
*393 _356_
*394 _357_
*395 _358_
*396 _359_
*397 _360_
*398 _361_
*399 _362_
*400 _363_
*401 _364_
*402 _365_
*403 _366_
*404 _367_
*405 _368_
*406 _369_
*407 _370_
*408 _371_
*409 _372_
*410 _373_
*411 _374_
*412 _375_
*413 _376_
*414 _377_
*415 _378_
*416 _379_
*417 _380_
*418 _381_
*419 _382_
*420 _383_
*421 _384_
*422 _385_
*423 _386_
*424 _387_
*425 _388_
*426 _389_
*427 _390_
*428 _391_
*429 _392_
*430 _393_
*431 clknet_0_wb_clk_i
*432 clknet_2_0__leaf_wb_clk_i
*433 clknet_2_1__leaf_wb_clk_i
*434 clknet_2_2__leaf_wb_clk_i
*435 clknet_2_3__leaf_wb_clk_i
*436 macp_inst\.product\[0\]
*437 macp_inst\.product\[10\]
*438 macp_inst\.product\[11\]
*439 macp_inst\.product\[12\]
*440 macp_inst\.product\[13\]
*441 macp_inst\.product\[14\]
*442 macp_inst\.product\[15\]
*443 macp_inst\.product\[1\]
*444 macp_inst\.product\[2\]
*445 macp_inst\.product\[3\]
*446 macp_inst\.product\[4\]
*447 macp_inst\.product\[5\]
*448 macp_inst\.product\[6\]
*449 macp_inst\.product\[7\]
*450 macp_inst\.product\[8\]
*451 macp_inst\.product\[9\]
*452 net1
*453 net10
*454 net100
*455 net101
*456 net102
*457 net103
*458 net104
*459 net105
*460 net106
*461 net107
*462 net108
*463 net109
*464 net11
*465 net110
*466 net111
*467 net112
*468 net113
*469 net114
*470 net115
*471 net116
*472 net117
*473 net118
*474 net119
*475 net12
*476 net120
*477 net121
*478 net122
*479 net123
*480 net124
*481 net125
*482 net126
*483 net127
*484 net128
*485 net129
*486 net13
*487 net130
*488 net131
*489 net132
*490 net133
*491 net134
*492 net135
*493 net136
*494 net137
*495 net138
*496 net139
*497 net14
*498 net140
*499 net141
*500 net142
*501 net143
*502 net144
*503 net145
*504 net146
*505 net147
*506 net148
*507 net149
*508 net15
*509 net150
*510 net151
*511 net152
*512 net153
*513 net154
*514 net155
*515 net156
*516 net157
*517 net158
*518 net159
*519 net16
*520 net160
*521 net161
*522 net162
*523 net163
*524 net164
*525 net165
*526 net166
*527 net167
*528 net168
*529 net169
*530 net17
*531 net170
*532 net171
*533 net172
*534 net173
*535 net174
*536 net175
*537 net176
*538 net177
*539 net178
*540 net179
*541 net18
*542 net180
*543 net181
*544 net182
*545 net183
*546 net184
*547 net185
*548 net186
*549 net187
*550 net188
*551 net189
*552 net19
*553 net190
*554 net191
*555 net192
*556 net193
*557 net194
*558 net195
*559 net196
*560 net197
*561 net198
*562 net199
*563 net2
*564 net20
*565 net200
*566 net201
*567 net202
*568 net203
*569 net204
*570 net205
*571 net206
*572 net207
*573 net208
*574 net209
*575 net21
*576 net210
*577 net211
*578 net212
*579 net213
*580 net214
*581 net215
*582 net216
*583 net217
*584 net218
*585 net219
*586 net22
*587 net220
*588 net221
*589 net222
*590 net223
*591 net224
*592 net225
*593 net226
*594 net227
*595 net228
*596 net229
*597 net23
*598 net230
*599 net231
*600 net232
*601 net233
*602 net234
*603 net235
*604 net236
*605 net237
*606 net238
*607 net239
*608 net24
*609 net240
*610 net241
*611 net242
*612 net243
*613 net244
*614 net245
*615 net246
*616 net247
*617 net248
*618 net249
*619 net25
*620 net250
*621 net251
*622 net252
*623 net253
*624 net254
*625 net255
*626 net256
*627 net257
*628 net258
*629 net259
*630 net26
*631 net260
*632 net261
*633 net262
*634 net263
*635 net264
*636 net265
*637 net266
*638 net267
*639 net268
*640 net269
*641 net27
*642 net270
*643 net271
*644 net272
*645 net273
*646 net274
*647 net275
*648 net276
*649 net277
*650 net278
*651 net279
*652 net28
*653 net280
*654 net281
*655 net29
*656 net3
*657 net30
*658 net31
*659 net32
*660 net33
*661 net34
*662 net35
*663 net36
*664 net37
*665 net38
*666 net39
*667 net4
*668 net40
*669 net41
*670 net42
*671 net43
*672 net44
*673 net45
*674 net46
*675 net47
*676 net48
*677 net49
*678 net5
*679 net50
*680 net51
*681 net52
*682 net53
*683 net54
*684 net55
*685 net56
*686 net57
*687 net58
*688 net59
*689 net6
*690 net60
*691 net61
*692 net62
*693 net63
*694 net64
*695 net65
*696 net66
*697 net67
*698 net68
*699 net69
*700 net7
*701 net70
*702 net71
*703 net72
*704 net73
*705 net74
*706 net75
*707 net76
*708 net77
*709 net78
*710 net79
*711 net8
*712 net80
*713 net81
*714 net82
*715 net83
*716 net84
*717 net85
*718 net86
*719 net87
*720 net88
*721 net89
*722 net9
*723 net90
*724 net91
*725 net92
*726 net93
*727 net94
*728 net95
*729 net96
*730 net97
*731 net98
*732 net99
*733 ANTENNA__394__A
*734 ANTENNA__395__A
*735 ANTENNA__396__A
*736 ANTENNA__397__A
*737 ANTENNA__399__A1
*738 ANTENNA__400__A
*739 ANTENNA__401__A
*740 ANTENNA__405__A
*741 ANTENNA__406__A
*742 ANTENNA__410__A
*743 ANTENNA__411__A
*744 ANTENNA__415__A
*745 ANTENNA__416__A
*746 ANTENNA__420__A
*747 ANTENNA__421__A
*748 ANTENNA__425__A
*749 ANTENNA__426__A
*750 ANTENNA__430__A
*751 ANTENNA__431__A
*752 ANTENNA__435__A
*753 ANTENNA__436__A
*754 ANTENNA__440__A
*755 ANTENNA__441__A
*756 ANTENNA__445__A
*757 ANTENNA__446__A
*758 ANTENNA__450__A
*759 ANTENNA__451__A
*760 ANTENNA__455__A
*761 ANTENNA__456__A
*762 ANTENNA__459__A
*763 ANTENNA__460__A
*764 ANTENNA__465__A
*765 ANTENNA__467__A
*766 ANTENNA__469__B
*767 ANTENNA__470__A2
*768 ANTENNA__470__A3
*769 ANTENNA__471__A2
*770 ANTENNA__471__B1
*771 ANTENNA__471__B2
*772 ANTENNA__472__B
*773 ANTENNA__472__C
*774 ANTENNA__472__D
*775 ANTENNA__473__A
*776 ANTENNA__474__B2
*777 ANTENNA__475__A
*778 ANTENNA__475__B
*779 ANTENNA__476__B
*780 ANTENNA__476__D
*781 ANTENNA__477__A1
*782 ANTENNA__477__B1
*783 ANTENNA__482__A
*784 ANTENNA__483__A2
*785 ANTENNA__484__A
*786 ANTENNA__484__B
*787 ANTENNA__485__A
*788 ANTENNA__485__B
*789 ANTENNA__486__B
*790 ANTENNA__486__C
*791 ANTENNA__486__D
*792 ANTENNA__487__A1
*793 ANTENNA__487__A2
*794 ANTENNA__487__B1
*795 ANTENNA__496__B1
*796 ANTENNA__497__A2
*797 ANTENNA__498__A1
*798 ANTENNA__498__A2
*799 ANTENNA__498__B1
*800 ANTENNA__498__B2
*801 ANTENNA__499__A
*802 ANTENNA__499__B
*803 ANTENNA__499__C
*804 ANTENNA__499__D
*805 ANTENNA__501__A
*806 ANTENNA__501__B
*807 ANTENNA__502__A1
*808 ANTENNA__502__A2
*809 ANTENNA__502__B1
*810 ANTENNA__503__B
*811 ANTENNA__503__C
*812 ANTENNA__503__D
*813 ANTENNA__511__A1
*814 ANTENNA__511__A2
*815 ANTENNA__515__B1
*816 ANTENNA__516__A2
*817 ANTENNA__519__A
*818 ANTENNA__519__B
*819 ANTENNA__520__A1
*820 ANTENNA__520__A2
*821 ANTENNA__520__B1
*822 ANTENNA__521__B
*823 ANTENNA__521__C
*824 ANTENNA__521__D
*825 ANTENNA__526__A1
*826 ANTENNA__526__A2
*827 ANTENNA__526__B1
*828 ANTENNA__526__B2
*829 ANTENNA__527__A
*830 ANTENNA__527__B
*831 ANTENNA__527__C
*832 ANTENNA__527__D
*833 ANTENNA__528__C
*834 ANTENNA__528__D
*835 ANTENNA__529__A1_N
*836 ANTENNA__529__A2_N
*837 ANTENNA__540__C1
*838 ANTENNA__541__A2
*839 ANTENNA__542__B1
*840 ANTENNA__542__C1
*841 ANTENNA__543__A1
*842 ANTENNA__543__A2
*843 ANTENNA__545__A
*844 ANTENNA__545__B
*845 ANTENNA__546__A1
*846 ANTENNA__546__A2
*847 ANTENNA__546__B1
*848 ANTENNA__546__B2
*849 ANTENNA__547__A
*850 ANTENNA__547__B
*851 ANTENNA__547__C
*852 ANTENNA__547__D
*853 ANTENNA__550__A
*854 ANTENNA__550__B
*855 ANTENNA__551__A2
*856 ANTENNA__551__B1
*857 ANTENNA__551__B2
*858 ANTENNA__552__B
*859 ANTENNA__552__C
*860 ANTENNA__552__D
*861 ANTENNA__571__B1
*862 ANTENNA__572__A2
*863 ANTENNA__573__A
*864 ANTENNA__573__B
*865 ANTENNA__574__A1
*866 ANTENNA__574__A2
*867 ANTENNA__575__A
*868 ANTENNA__575__B
*869 ANTENNA__576__A
*870 ANTENNA__576__B
*871 ANTENNA__579__A
*872 ANTENNA__579__B
*873 ANTENNA__580__A1
*874 ANTENNA__580__A2
*875 ANTENNA__580__B1
*876 ANTENNA__580__B2
*877 ANTENNA__581__A
*878 ANTENNA__581__B
*879 ANTENNA__581__C
*880 ANTENNA__581__D
*881 ANTENNA__584__A
*882 ANTENNA__584__B
*883 ANTENNA__585__B
*884 ANTENNA__585__C
*885 ANTENNA__586__A1
*886 ANTENNA__586__A2
*887 ANTENNA__587__A1
*888 ANTENNA__587__A2
*889 ANTENNA__588__A
*890 ANTENNA__588__B
*891 ANTENNA__608__S
*892 ANTENNA__609__A1
*893 ANTENNA__609__A2
*894 ANTENNA__610__A1
*895 ANTENNA__610__A2
*896 ANTENNA__611__A
*897 ANTENNA__611__B
*898 ANTENNA__613__A
*899 ANTENNA__613__B
*900 ANTENNA__614__A1
*901 ANTENNA__614__A2
*902 ANTENNA__616__A1
*903 ANTENNA__616__A2
*904 ANTENNA__616__B1
*905 ANTENNA__616__B2
*906 ANTENNA__617__A
*907 ANTENNA__617__B
*908 ANTENNA__617__C
*909 ANTENNA__617__D
*910 ANTENNA__618__A1_N
*911 ANTENNA__618__A2_N
*912 ANTENNA__619__C
*913 ANTENNA__619__D
*914 ANTENNA__621__A1
*915 ANTENNA__621__A2
*916 ANTENNA__621__B2
*917 ANTENNA__622__A
*918 ANTENNA__622__B
*919 ANTENNA__622__C
*920 ANTENNA__642__B1
*921 ANTENNA__643__B2
*922 ANTENNA__644__A1
*923 ANTENNA__644__A2
*924 ANTENNA__646__A
*925 ANTENNA__646__B
*926 ANTENNA__647__A1
*927 ANTENNA__647__A2
*928 ANTENNA__649__A
*929 ANTENNA__649__B
*930 ANTENNA__651__A1
*931 ANTENNA__651__A2
*932 ANTENNA__651__B1
*933 ANTENNA__651__B2
*934 ANTENNA__652__A
*935 ANTENNA__652__B
*936 ANTENNA__652__C
*937 ANTENNA__652__D
*938 ANTENNA__653__A
*939 ANTENNA__653__B
*940 ANTENNA__656__A
*941 ANTENNA__672__S
*942 ANTENNA__673__A1
*943 ANTENNA__673__A2
*944 ANTENNA__675__A
*945 ANTENNA__675__B
*946 ANTENNA__676__A
*947 ANTENNA__676__B
*948 ANTENNA__678__A
*949 ANTENNA__678__B
*950 ANTENNA__679__A
*951 ANTENNA__679__B
*952 ANTENNA__681__A1
*953 ANTENNA__681__A2
*954 ANTENNA__681__B2
*955 ANTENNA__682__A
*956 ANTENNA__682__B
*957 ANTENNA__682__C
*958 ANTENNA__683__C
*959 ANTENNA__683__D
*960 ANTENNA__684__A1_N
*961 ANTENNA__684__A2_N
*962 ANTENNA__700__B1
*963 ANTENNA__701__B2
*964 ANTENNA__702__A1
*965 ANTENNA__702__A2
*966 ANTENNA__702__B2
*967 ANTENNA__703__A
*968 ANTENNA__703__B
*969 ANTENNA__703__C
*970 ANTENNA__705__B1
*971 ANTENNA__705__C1
*972 ANTENNA__706__A1
*973 ANTENNA__706__A2
*974 ANTENNA__708__A
*975 ANTENNA__708__B
*976 ANTENNA__722__S
*977 ANTENNA__723__A
*978 ANTENNA__723__B
*979 ANTENNA__725__A1
*980 ANTENNA__726__A
*981 ANTENNA__726__B
*982 ANTENNA__728__A
*983 ANTENNA__729__A1
*984 ANTENNA__746__B1
*985 ANTENNA__747__B2
*986 ANTENNA__748__A1
*987 ANTENNA__748__B1
*988 ANTENNA__748__B2
*989 ANTENNA__749__B
*990 ANTENNA__753__A1_N
*991 ANTENNA__763__S
*992 ANTENNA__765__B
*993 ANTENNA__769__S
*994 ANTENNA__770__B1
*995 ANTENNA__770__C1
*996 ANTENNA__771__C1
*997 ANTENNA__772__A2
*998 ANTENNA__773__A
*999 ANTENNA__774__A
*1000 ANTENNA__775__A
*1001 ANTENNA__776__A
*1002 ANTENNA__777__A
*1003 ANTENNA__778__A
*1004 ANTENNA__779__A
*1005 ANTENNA__780__A
*1006 ANTENNA__781__A
*1007 ANTENNA__782__A
*1008 ANTENNA__783__A
*1009 ANTENNA__784__A
*1010 ANTENNA__785__A
*1011 ANTENNA__786__A
*1012 ANTENNA__787__A
*1013 ANTENNA__804__RESET_B
*1014 ANTENNA_hold106_A
*1015 ANTENNA_hold10_A
*1016 ANTENNA_hold119_A
*1017 ANTENNA_hold151_A
*1018 ANTENNA_hold153_A
*1019 ANTENNA_hold155_A
*1020 ANTENNA_hold157_A
*1021 ANTENNA_hold15_A
*1022 ANTENNA_hold166_A
*1023 ANTENNA_hold193_A
*1024 ANTENNA_hold195_A
*1025 ANTENNA_hold197_A
*1026 ANTENNA_hold204_A
*1027 ANTENNA_hold20_A
*1028 ANTENNA_hold26_A
*1029 ANTENNA_hold34_A
*1030 ANTENNA_hold40_A
*1031 ANTENNA_hold48_A
*1032 ANTENNA_hold5_A
*1033 ANTENNA_hold65_A
*1034 ANTENNA_hold83_A
*1035 ANTENNA_output18_A
*1036 ANTENNA_output19_A
*1037 ANTENNA_output20_A
*1038 ANTENNA_output21_A
*1039 ANTENNA_output22_A
*1040 ANTENNA_output23_A
*1041 ANTENNA_output24_A
*1042 ANTENNA_output25_A
*1043 ANTENNA_output26_A
*1044 ANTENNA_output27_A
*1045 ANTENNA_output28_A
*1046 ANTENNA_output29_A
*1047 ANTENNA_output30_A
*1048 ANTENNA_output31_A
*1049 ANTENNA_output32_A
*1050 ANTENNA_output33_A
*1051 FILLER_0_0_100
*1052 FILLER_0_0_1002
*1053 FILLER_0_0_1005
*1054 FILLER_0_0_1009
*1055 FILLER_0_0_1012
*1056 FILLER_0_0_1015
*1057 FILLER_0_0_1018
*1058 FILLER_0_0_1021
*1059 FILLER_0_0_1024
*1060 FILLER_0_0_1027
*1061 FILLER_0_0_103
*1062 FILLER_0_0_1030
*1063 FILLER_0_0_1033
*1064 FILLER_0_0_1037
*1065 FILLER_0_0_1040
*1066 FILLER_0_0_1043
*1067 FILLER_0_0_1046
*1068 FILLER_0_0_1049
*1069 FILLER_0_0_1052
*1070 FILLER_0_0_1055
*1071 FILLER_0_0_1058
*1072 FILLER_0_0_106
*1073 FILLER_0_0_109
*1074 FILLER_0_0_113
*1075 FILLER_0_0_116
*1076 FILLER_0_0_119
*1077 FILLER_0_0_12
*1078 FILLER_0_0_122
*1079 FILLER_0_0_125
*1080 FILLER_0_0_128
*1081 FILLER_0_0_131
*1082 FILLER_0_0_134
*1083 FILLER_0_0_137
*1084 FILLER_0_0_141
*1085 FILLER_0_0_144
*1086 FILLER_0_0_147
*1087 FILLER_0_0_15
*1088 FILLER_0_0_150
*1089 FILLER_0_0_153
*1090 FILLER_0_0_156
*1091 FILLER_0_0_159
*1092 FILLER_0_0_162
*1093 FILLER_0_0_165
*1094 FILLER_0_0_169
*1095 FILLER_0_0_172
*1096 FILLER_0_0_175
*1097 FILLER_0_0_178
*1098 FILLER_0_0_18
*1099 FILLER_0_0_181
*1100 FILLER_0_0_184
*1101 FILLER_0_0_187
*1102 FILLER_0_0_190
*1103 FILLER_0_0_193
*1104 FILLER_0_0_197
*1105 FILLER_0_0_200
*1106 FILLER_0_0_203
*1107 FILLER_0_0_206
*1108 FILLER_0_0_209
*1109 FILLER_0_0_21
*1110 FILLER_0_0_212
*1111 FILLER_0_0_215
*1112 FILLER_0_0_218
*1113 FILLER_0_0_221
*1114 FILLER_0_0_225
*1115 FILLER_0_0_228
*1116 FILLER_0_0_231
*1117 FILLER_0_0_234
*1118 FILLER_0_0_237
*1119 FILLER_0_0_24
*1120 FILLER_0_0_240
*1121 FILLER_0_0_243
*1122 FILLER_0_0_246
*1123 FILLER_0_0_249
*1124 FILLER_0_0_253
*1125 FILLER_0_0_256
*1126 FILLER_0_0_259
*1127 FILLER_0_0_262
*1128 FILLER_0_0_265
*1129 FILLER_0_0_268
*1130 FILLER_0_0_27
*1131 FILLER_0_0_271
*1132 FILLER_0_0_274
*1133 FILLER_0_0_277
*1134 FILLER_0_0_281
*1135 FILLER_0_0_284
*1136 FILLER_0_0_287
*1137 FILLER_0_0_29
*1138 FILLER_0_0_290
*1139 FILLER_0_0_293
*1140 FILLER_0_0_296
*1141 FILLER_0_0_299
*1142 FILLER_0_0_3
*1143 FILLER_0_0_302
*1144 FILLER_0_0_305
*1145 FILLER_0_0_309
*1146 FILLER_0_0_312
*1147 FILLER_0_0_315
*1148 FILLER_0_0_318
*1149 FILLER_0_0_32
*1150 FILLER_0_0_321
*1151 FILLER_0_0_324
*1152 FILLER_0_0_327
*1153 FILLER_0_0_330
*1154 FILLER_0_0_333
*1155 FILLER_0_0_337
*1156 FILLER_0_0_340
*1157 FILLER_0_0_343
*1158 FILLER_0_0_346
*1159 FILLER_0_0_349
*1160 FILLER_0_0_35
*1161 FILLER_0_0_352
*1162 FILLER_0_0_355
*1163 FILLER_0_0_358
*1164 FILLER_0_0_361
*1165 FILLER_0_0_365
*1166 FILLER_0_0_368
*1167 FILLER_0_0_371
*1168 FILLER_0_0_374
*1169 FILLER_0_0_377
*1170 FILLER_0_0_38
*1171 FILLER_0_0_380
*1172 FILLER_0_0_383
*1173 FILLER_0_0_386
*1174 FILLER_0_0_389
*1175 FILLER_0_0_393
*1176 FILLER_0_0_396
*1177 FILLER_0_0_399
*1178 FILLER_0_0_402
*1179 FILLER_0_0_405
*1180 FILLER_0_0_408
*1181 FILLER_0_0_41
*1182 FILLER_0_0_411
*1183 FILLER_0_0_414
*1184 FILLER_0_0_417
*1185 FILLER_0_0_421
*1186 FILLER_0_0_424
*1187 FILLER_0_0_427
*1188 FILLER_0_0_430
*1189 FILLER_0_0_433
*1190 FILLER_0_0_436
*1191 FILLER_0_0_439
*1192 FILLER_0_0_44
*1193 FILLER_0_0_442
*1194 FILLER_0_0_445
*1195 FILLER_0_0_449
*1196 FILLER_0_0_452
*1197 FILLER_0_0_455
*1198 FILLER_0_0_458
*1199 FILLER_0_0_461
*1200 FILLER_0_0_464
*1201 FILLER_0_0_467
*1202 FILLER_0_0_47
*1203 FILLER_0_0_470
*1204 FILLER_0_0_473
*1205 FILLER_0_0_477
*1206 FILLER_0_0_480
*1207 FILLER_0_0_483
*1208 FILLER_0_0_486
*1209 FILLER_0_0_489
*1210 FILLER_0_0_492
*1211 FILLER_0_0_495
*1212 FILLER_0_0_498
*1213 FILLER_0_0_50
*1214 FILLER_0_0_501
*1215 FILLER_0_0_505
*1216 FILLER_0_0_508
*1217 FILLER_0_0_511
*1218 FILLER_0_0_514
*1219 FILLER_0_0_517
*1220 FILLER_0_0_520
*1221 FILLER_0_0_523
*1222 FILLER_0_0_526
*1223 FILLER_0_0_529
*1224 FILLER_0_0_53
*1225 FILLER_0_0_533
*1226 FILLER_0_0_536
*1227 FILLER_0_0_539
*1228 FILLER_0_0_542
*1229 FILLER_0_0_545
*1230 FILLER_0_0_548
*1231 FILLER_0_0_551
*1232 FILLER_0_0_554
*1233 FILLER_0_0_557
*1234 FILLER_0_0_561
*1235 FILLER_0_0_564
*1236 FILLER_0_0_567
*1237 FILLER_0_0_57
*1238 FILLER_0_0_570
*1239 FILLER_0_0_573
*1240 FILLER_0_0_576
*1241 FILLER_0_0_579
*1242 FILLER_0_0_582
*1243 FILLER_0_0_585
*1244 FILLER_0_0_589
*1245 FILLER_0_0_592
*1246 FILLER_0_0_595
*1247 FILLER_0_0_598
*1248 FILLER_0_0_6
*1249 FILLER_0_0_60
*1250 FILLER_0_0_601
*1251 FILLER_0_0_604
*1252 FILLER_0_0_607
*1253 FILLER_0_0_610
*1254 FILLER_0_0_613
*1255 FILLER_0_0_617
*1256 FILLER_0_0_620
*1257 FILLER_0_0_623
*1258 FILLER_0_0_626
*1259 FILLER_0_0_629
*1260 FILLER_0_0_63
*1261 FILLER_0_0_632
*1262 FILLER_0_0_635
*1263 FILLER_0_0_638
*1264 FILLER_0_0_641
*1265 FILLER_0_0_645
*1266 FILLER_0_0_648
*1267 FILLER_0_0_651
*1268 FILLER_0_0_654
*1269 FILLER_0_0_657
*1270 FILLER_0_0_66
*1271 FILLER_0_0_660
*1272 FILLER_0_0_663
*1273 FILLER_0_0_666
*1274 FILLER_0_0_669
*1275 FILLER_0_0_673
*1276 FILLER_0_0_676
*1277 FILLER_0_0_679
*1278 FILLER_0_0_682
*1279 FILLER_0_0_685
*1280 FILLER_0_0_688
*1281 FILLER_0_0_69
*1282 FILLER_0_0_691
*1283 FILLER_0_0_694
*1284 FILLER_0_0_697
*1285 FILLER_0_0_701
*1286 FILLER_0_0_704
*1287 FILLER_0_0_707
*1288 FILLER_0_0_710
*1289 FILLER_0_0_713
*1290 FILLER_0_0_716
*1291 FILLER_0_0_719
*1292 FILLER_0_0_72
*1293 FILLER_0_0_722
*1294 FILLER_0_0_725
*1295 FILLER_0_0_729
*1296 FILLER_0_0_732
*1297 FILLER_0_0_735
*1298 FILLER_0_0_738
*1299 FILLER_0_0_741
*1300 FILLER_0_0_744
*1301 FILLER_0_0_747
*1302 FILLER_0_0_75
*1303 FILLER_0_0_750
*1304 FILLER_0_0_753
*1305 FILLER_0_0_757
*1306 FILLER_0_0_760
*1307 FILLER_0_0_763
*1308 FILLER_0_0_766
*1309 FILLER_0_0_769
*1310 FILLER_0_0_772
*1311 FILLER_0_0_775
*1312 FILLER_0_0_778
*1313 FILLER_0_0_78
*1314 FILLER_0_0_781
*1315 FILLER_0_0_785
*1316 FILLER_0_0_788
*1317 FILLER_0_0_791
*1318 FILLER_0_0_794
*1319 FILLER_0_0_797
*1320 FILLER_0_0_800
*1321 FILLER_0_0_803
*1322 FILLER_0_0_806
*1323 FILLER_0_0_809
*1324 FILLER_0_0_81
*1325 FILLER_0_0_813
*1326 FILLER_0_0_816
*1327 FILLER_0_0_819
*1328 FILLER_0_0_822
*1329 FILLER_0_0_825
*1330 FILLER_0_0_828
*1331 FILLER_0_0_831
*1332 FILLER_0_0_834
*1333 FILLER_0_0_837
*1334 FILLER_0_0_841
*1335 FILLER_0_0_844
*1336 FILLER_0_0_847
*1337 FILLER_0_0_85
*1338 FILLER_0_0_850
*1339 FILLER_0_0_853
*1340 FILLER_0_0_856
*1341 FILLER_0_0_859
*1342 FILLER_0_0_862
*1343 FILLER_0_0_865
*1344 FILLER_0_0_869
*1345 FILLER_0_0_872
*1346 FILLER_0_0_875
*1347 FILLER_0_0_878
*1348 FILLER_0_0_88
*1349 FILLER_0_0_881
*1350 FILLER_0_0_884
*1351 FILLER_0_0_887
*1352 FILLER_0_0_890
*1353 FILLER_0_0_893
*1354 FILLER_0_0_897
*1355 FILLER_0_0_9
*1356 FILLER_0_0_900
*1357 FILLER_0_0_903
*1358 FILLER_0_0_906
*1359 FILLER_0_0_909
*1360 FILLER_0_0_91
*1361 FILLER_0_0_912
*1362 FILLER_0_0_915
*1363 FILLER_0_0_918
*1364 FILLER_0_0_921
*1365 FILLER_0_0_925
*1366 FILLER_0_0_928
*1367 FILLER_0_0_931
*1368 FILLER_0_0_934
*1369 FILLER_0_0_937
*1370 FILLER_0_0_94
*1371 FILLER_0_0_940
*1372 FILLER_0_0_943
*1373 FILLER_0_0_946
*1374 FILLER_0_0_949
*1375 FILLER_0_0_953
*1376 FILLER_0_0_956
*1377 FILLER_0_0_959
*1378 FILLER_0_0_962
*1379 FILLER_0_0_965
*1380 FILLER_0_0_968
*1381 FILLER_0_0_97
*1382 FILLER_0_0_971
*1383 FILLER_0_0_974
*1384 FILLER_0_0_977
*1385 FILLER_0_0_981
*1386 FILLER_0_0_984
*1387 FILLER_0_0_987
*1388 FILLER_0_0_990
*1389 FILLER_0_0_993
*1390 FILLER_0_0_996
*1391 FILLER_0_0_999
*1392 FILLER_0_100_100
*1393 FILLER_0_100_1002
*1394 FILLER_0_100_1005
*1395 FILLER_0_100_1008
*1396 FILLER_0_100_1011
*1397 FILLER_0_100_1014
*1398 FILLER_0_100_1017
*1399 FILLER_0_100_1020
*1400 FILLER_0_100_1023
*1401 FILLER_0_100_1026
*1402 FILLER_0_100_1029
*1403 FILLER_0_100_103
*1404 FILLER_0_100_1032
*1405 FILLER_0_100_1035
*1406 FILLER_0_100_1037
*1407 FILLER_0_100_1040
*1408 FILLER_0_100_1043
*1409 FILLER_0_100_1046
*1410 FILLER_0_100_1049
*1411 FILLER_0_100_1052
*1412 FILLER_0_100_1055
*1413 FILLER_0_100_1058
*1414 FILLER_0_100_106
*1415 FILLER_0_100_109
*1416 FILLER_0_100_112
*1417 FILLER_0_100_115
*1418 FILLER_0_100_118
*1419 FILLER_0_100_12
*1420 FILLER_0_100_121
*1421 FILLER_0_100_124
*1422 FILLER_0_100_127
*1423 FILLER_0_100_130
*1424 FILLER_0_100_133
*1425 FILLER_0_100_136
*1426 FILLER_0_100_139
*1427 FILLER_0_100_141
*1428 FILLER_0_100_144
*1429 FILLER_0_100_147
*1430 FILLER_0_100_15
*1431 FILLER_0_100_150
*1432 FILLER_0_100_153
*1433 FILLER_0_100_156
*1434 FILLER_0_100_159
*1435 FILLER_0_100_162
*1436 FILLER_0_100_165
*1437 FILLER_0_100_168
*1438 FILLER_0_100_171
*1439 FILLER_0_100_174
*1440 FILLER_0_100_177
*1441 FILLER_0_100_18
*1442 FILLER_0_100_180
*1443 FILLER_0_100_183
*1444 FILLER_0_100_186
*1445 FILLER_0_100_189
*1446 FILLER_0_100_192
*1447 FILLER_0_100_195
*1448 FILLER_0_100_197
*1449 FILLER_0_100_200
*1450 FILLER_0_100_203
*1451 FILLER_0_100_206
*1452 FILLER_0_100_209
*1453 FILLER_0_100_21
*1454 FILLER_0_100_212
*1455 FILLER_0_100_215
*1456 FILLER_0_100_218
*1457 FILLER_0_100_221
*1458 FILLER_0_100_224
*1459 FILLER_0_100_227
*1460 FILLER_0_100_230
*1461 FILLER_0_100_233
*1462 FILLER_0_100_236
*1463 FILLER_0_100_239
*1464 FILLER_0_100_24
*1465 FILLER_0_100_242
*1466 FILLER_0_100_245
*1467 FILLER_0_100_248
*1468 FILLER_0_100_251
*1469 FILLER_0_100_253
*1470 FILLER_0_100_256
*1471 FILLER_0_100_259
*1472 FILLER_0_100_262
*1473 FILLER_0_100_265
*1474 FILLER_0_100_268
*1475 FILLER_0_100_27
*1476 FILLER_0_100_271
*1477 FILLER_0_100_274
*1478 FILLER_0_100_277
*1479 FILLER_0_100_280
*1480 FILLER_0_100_283
*1481 FILLER_0_100_286
*1482 FILLER_0_100_289
*1483 FILLER_0_100_29
*1484 FILLER_0_100_292
*1485 FILLER_0_100_295
*1486 FILLER_0_100_298
*1487 FILLER_0_100_3
*1488 FILLER_0_100_301
*1489 FILLER_0_100_304
*1490 FILLER_0_100_307
*1491 FILLER_0_100_309
*1492 FILLER_0_100_312
*1493 FILLER_0_100_315
*1494 FILLER_0_100_318
*1495 FILLER_0_100_32
*1496 FILLER_0_100_321
*1497 FILLER_0_100_324
*1498 FILLER_0_100_327
*1499 FILLER_0_100_330
*1500 FILLER_0_100_333
*1501 FILLER_0_100_336
*1502 FILLER_0_100_339
*1503 FILLER_0_100_342
*1504 FILLER_0_100_345
*1505 FILLER_0_100_348
*1506 FILLER_0_100_35
*1507 FILLER_0_100_351
*1508 FILLER_0_100_354
*1509 FILLER_0_100_357
*1510 FILLER_0_100_360
*1511 FILLER_0_100_363
*1512 FILLER_0_100_365
*1513 FILLER_0_100_368
*1514 FILLER_0_100_371
*1515 FILLER_0_100_374
*1516 FILLER_0_100_377
*1517 FILLER_0_100_38
*1518 FILLER_0_100_380
*1519 FILLER_0_100_383
*1520 FILLER_0_100_386
*1521 FILLER_0_100_389
*1522 FILLER_0_100_392
*1523 FILLER_0_100_395
*1524 FILLER_0_100_398
*1525 FILLER_0_100_401
*1526 FILLER_0_100_404
*1527 FILLER_0_100_407
*1528 FILLER_0_100_41
*1529 FILLER_0_100_410
*1530 FILLER_0_100_413
*1531 FILLER_0_100_416
*1532 FILLER_0_100_419
*1533 FILLER_0_100_421
*1534 FILLER_0_100_424
*1535 FILLER_0_100_427
*1536 FILLER_0_100_430
*1537 FILLER_0_100_433
*1538 FILLER_0_100_436
*1539 FILLER_0_100_439
*1540 FILLER_0_100_44
*1541 FILLER_0_100_442
*1542 FILLER_0_100_445
*1543 FILLER_0_100_448
*1544 FILLER_0_100_451
*1545 FILLER_0_100_454
*1546 FILLER_0_100_457
*1547 FILLER_0_100_460
*1548 FILLER_0_100_463
*1549 FILLER_0_100_466
*1550 FILLER_0_100_469
*1551 FILLER_0_100_47
*1552 FILLER_0_100_472
*1553 FILLER_0_100_475
*1554 FILLER_0_100_477
*1555 FILLER_0_100_480
*1556 FILLER_0_100_483
*1557 FILLER_0_100_486
*1558 FILLER_0_100_489
*1559 FILLER_0_100_492
*1560 FILLER_0_100_495
*1561 FILLER_0_100_498
*1562 FILLER_0_100_50
*1563 FILLER_0_100_501
*1564 FILLER_0_100_504
*1565 FILLER_0_100_507
*1566 FILLER_0_100_510
*1567 FILLER_0_100_513
*1568 FILLER_0_100_516
*1569 FILLER_0_100_519
*1570 FILLER_0_100_522
*1571 FILLER_0_100_525
*1572 FILLER_0_100_528
*1573 FILLER_0_100_53
*1574 FILLER_0_100_531
*1575 FILLER_0_100_533
*1576 FILLER_0_100_536
*1577 FILLER_0_100_539
*1578 FILLER_0_100_542
*1579 FILLER_0_100_545
*1580 FILLER_0_100_548
*1581 FILLER_0_100_551
*1582 FILLER_0_100_554
*1583 FILLER_0_100_557
*1584 FILLER_0_100_56
*1585 FILLER_0_100_560
*1586 FILLER_0_100_563
*1587 FILLER_0_100_566
*1588 FILLER_0_100_569
*1589 FILLER_0_100_572
*1590 FILLER_0_100_575
*1591 FILLER_0_100_578
*1592 FILLER_0_100_581
*1593 FILLER_0_100_586
*1594 FILLER_0_100_589
*1595 FILLER_0_100_59
*1596 FILLER_0_100_592
*1597 FILLER_0_100_595
*1598 FILLER_0_100_598
*1599 FILLER_0_100_6
*1600 FILLER_0_100_601
*1601 FILLER_0_100_604
*1602 FILLER_0_100_607
*1603 FILLER_0_100_610
*1604 FILLER_0_100_613
*1605 FILLER_0_100_616
*1606 FILLER_0_100_619
*1607 FILLER_0_100_62
*1608 FILLER_0_100_622
*1609 FILLER_0_100_625
*1610 FILLER_0_100_628
*1611 FILLER_0_100_631
*1612 FILLER_0_100_634
*1613 FILLER_0_100_637
*1614 FILLER_0_100_640
*1615 FILLER_0_100_643
*1616 FILLER_0_100_645
*1617 FILLER_0_100_648
*1618 FILLER_0_100_65
*1619 FILLER_0_100_651
*1620 FILLER_0_100_654
*1621 FILLER_0_100_657
*1622 FILLER_0_100_660
*1623 FILLER_0_100_663
*1624 FILLER_0_100_666
*1625 FILLER_0_100_669
*1626 FILLER_0_100_672
*1627 FILLER_0_100_675
*1628 FILLER_0_100_678
*1629 FILLER_0_100_68
*1630 FILLER_0_100_681
*1631 FILLER_0_100_684
*1632 FILLER_0_100_687
*1633 FILLER_0_100_690
*1634 FILLER_0_100_693
*1635 FILLER_0_100_696
*1636 FILLER_0_100_699
*1637 FILLER_0_100_701
*1638 FILLER_0_100_704
*1639 FILLER_0_100_707
*1640 FILLER_0_100_71
*1641 FILLER_0_100_710
*1642 FILLER_0_100_713
*1643 FILLER_0_100_716
*1644 FILLER_0_100_739
*1645 FILLER_0_100_74
*1646 FILLER_0_100_743
*1647 FILLER_0_100_755
*1648 FILLER_0_100_767
*1649 FILLER_0_100_77
*1650 FILLER_0_100_771
*1651 FILLER_0_100_774
*1652 FILLER_0_100_80
*1653 FILLER_0_100_811
*1654 FILLER_0_100_819
*1655 FILLER_0_100_824
*1656 FILLER_0_100_827
*1657 FILLER_0_100_83
*1658 FILLER_0_100_830
*1659 FILLER_0_100_833
*1660 FILLER_0_100_836
*1661 FILLER_0_100_839
*1662 FILLER_0_100_842
*1663 FILLER_0_100_845
*1664 FILLER_0_100_848
*1665 FILLER_0_100_85
*1666 FILLER_0_100_851
*1667 FILLER_0_100_854
*1668 FILLER_0_100_857
*1669 FILLER_0_100_860
*1670 FILLER_0_100_863
*1671 FILLER_0_100_866
*1672 FILLER_0_100_869
*1673 FILLER_0_100_872
*1674 FILLER_0_100_875
*1675 FILLER_0_100_878
*1676 FILLER_0_100_88
*1677 FILLER_0_100_881
*1678 FILLER_0_100_884
*1679 FILLER_0_100_887
*1680 FILLER_0_100_890
*1681 FILLER_0_100_893
*1682 FILLER_0_100_896
*1683 FILLER_0_100_899
*1684 FILLER_0_100_9
*1685 FILLER_0_100_902
*1686 FILLER_0_100_905
*1687 FILLER_0_100_908
*1688 FILLER_0_100_91
*1689 FILLER_0_100_911