*SPEF "ieee 1481-1999"
*DESIGN "s3chip"
*DATE "11:11:11 Fri 11 11, 1111"
*VENDOR "OpenRCX"
*PROGRAM "Parallel Extraction"
*VERSION "1.0"
*DESIGN_FLOW "NAME_SCOPE LOCAL" "PIN_CAP NONE"
*DIVIDER /
*DELIMITER :
*BUS_DELIMITER []
*T_UNIT 1 NS
*C_UNIT 1 PF
*R_UNIT 1 OHM
*L_UNIT 1 HENRY

*NAME_MAP
*1 net56
*2 net57
*3 net58
*4 net59
*5 net60
*6 net61
*7 net62
*8 net63
*9 io_out[0]
*10 io_out[1]
*11 io_out[2]
*12 io_out[3]
*13 io_out[4]
*14 io_out[5]
*15 io_out[6]
*16 io_out[7]
*17 la_data_in[0]
*18 la_data_in[10]
*19 la_data_in[11]
*20 la_data_in[12]
*21 la_data_in[13]
*22 la_data_in[1]
*23 la_data_in[2]
*24 la_data_in[3]
*25 la_data_in[4]
*26 la_data_in[5]
*27 la_data_in[6]
*28 la_data_in[7]
*29 la_data_in[8]
*30 la_data_in[9]
*33 wb_clk_i
*34 _0000_
*35 _0001_
*36 _0002_
*37 _0003_
*38 _0004_
*39 _0005_
*40 _0006_
*41 _0007_
*42 _0008_
*43 _0009_
*44 _0010_
*45 _0011_
*46 _0012_
*47 _0013_
*48 _0014_
*49 _0015_
*50 _0016_
*51 _0017_
*52 _0018_
*53 _0019_
*54 _0020_
*55 _0021_
*56 _0022_
*57 _0023_
*58 _0024_
*59 _0025_
*60 _0026_
*61 _0027_
*62 _0028_
*63 _0029_
*64 _0030_
*65 _0031_
*66 _0032_
*67 _0033_
*68 _0034_
*69 _0035_
*70 _0036_
*71 _0037_
*72 _0038_
*73 _0039_
*74 _0040_
*75 _0041_
*76 _0042_
*77 _0043_
*78 _0044_
*79 _0045_
*80 _0046_
*81 _0047_
*82 _0048_
*83 _0049_
*84 _0050_
*85 _0051_
*86 _0052_
*87 _0053_
*88 _0054_
*89 _0055_
*90 _0056_
*91 _0057_
*92 _0058_
*93 _0059_
*94 _0060_
*95 _0061_
*96 _0062_
*97 _0063_
*98 _0064_
*99 _0065_
*100 _0066_
*101 _0067_
*102 _0068_
*103 _0069_
*104 _0070_
*105 _0071_
*106 _0072_
*107 _0073_
*108 _0074_
*109 _0075_
*110 _0076_
*111 _0077_
*112 _0078_
*113 _0079_
*114 _0080_
*115 _0081_
*116 _0082_
*117 _0083_
*118 _0084_
*119 _0085_
*120 _0086_
*121 _0087_
*122 _0088_
*123 _0089_
*124 _0090_
*125 _0091_
*126 _0092_
*127 _0093_
*128 _0094_
*129 _0095_
*130 _0096_
*131 _0097_
*132 _0098_
*133 _0099_
*134 _0100_
*135 _0101_
*136 _0102_
*137 _0103_
*138 _0104_
*139 _0105_
*140 _0106_
*141 _0107_
*142 _0108_
*143 _0109_
*144 _0110_
*145 _0111_
*146 _0112_
*147 _0113_
*148 _0114_
*149 _0115_
*150 _0116_
*151 _0117_
*152 _0118_
*153 _0119_
*154 _0120_
*155 _0121_
*156 _0122_
*157 _0123_
*158 _0124_
*159 _0125_
*160 _0126_
*161 _0127_
*162 _0128_
*163 _0129_
*164 _0130_
*165 _0131_
*166 _0132_
*167 _0133_
*168 _0134_
*169 _0135_
*170 _0136_
*171 _0137_
*172 _0138_
*173 _0139_
*174 _0140_
*175 _0141_
*176 _0142_
*177 _0143_
*178 _0144_
*179 _0145_
*180 _0146_
*181 _0147_
*182 _0148_
*183 _0149_
*184 _0150_
*185 _0151_
*186 _0152_
*187 _0153_
*188 _0154_
*189 _0155_
*190 _0156_
*191 _0157_
*192 _0158_
*193 _0159_
*194 _0160_
*195 _0161_
*196 _0162_
*197 _0163_
*198 _0164_
*199 _0165_
*200 _0166_
*201 _0167_
*202 _0168_
*203 _0169_
*204 _0170_
*205 _0171_
*206 _0172_
*207 _0173_
*208 _0174_
*209 _0175_
*210 _0176_
*211 _0177_
*212 _0178_
*213 _0179_
*214 _0180_
*215 _0181_
*216 _0182_
*217 _0183_
*218 _0184_
*219 _0185_
*220 _0186_
*221 _0187_
*222 _0188_
*223 _0189_
*224 _0190_
*225 _0191_
*226 _0192_
*227 _0193_
*228 _0194_
*229 _0195_
*230 _0196_
*231 _0197_
*232 _0198_
*233 _0199_
*234 _0200_
*235 _0201_
*236 _0202_
*237 _0203_
*238 _0204_
*239 _0205_
*240 _0206_
*241 _0207_
*242 _0208_
*243 _0209_
*244 _0210_
*245 _0211_
*246 _0212_
*247 _0213_
*248 _0214_
*249 _0215_
*250 _0216_
*251 _0217_
*252 _0218_
*253 _0219_
*254 _0220_
*255 _0221_
*256 _0222_
*257 _0223_
*258 _0224_
*259 _0225_
*260 _0226_
*261 _0227_
*262 _0228_
*263 _0229_
*264 _0230_
*265 _0231_
*266 _0232_
*267 _0233_
*268 _0234_
*269 _0235_
*270 _0236_
*271 _0237_
*272 _0238_
*273 _0239_
*274 _0240_
*275 _0241_
*276 _0242_
*277 _0243_
*278 _0244_
*279 _0245_
*280 _0246_
*281 _0247_
*282 _0248_
*283 _0249_
*284 _0250_
*285 _0251_
*286 _0252_
*287 _0253_
*288 _0254_
*289 _0255_
*290 _0256_
*291 _0257_
*292 _0258_
*293 _0259_
*294 _0260_
*295 _0261_
*296 _0262_
*297 _0263_
*298 _0264_
*299 _0265_
*300 _0266_
*301 _0267_
*302 _0268_
*303 _0269_
*304 _0270_
*305 _0271_
*306 _0272_
*307 _0273_
*308 _0274_
*309 _0275_
*310 _0276_
*311 _0277_
*312 _0278_
*313 _0279_
*314 _0280_
*315 _0281_
*316 _0282_
*317 _0283_
*318 _0284_
*319 _0285_
*320 _0286_
*321 _0287_
*322 _0288_
*323 _0289_
*324 _0290_
*325 _0291_
*326 _0292_
*327 _0293_
*328 _0294_
*329 _0295_
*330 _0296_
*331 _0297_
*332 _0298_
*333 _0299_
*334 _0300_
*335 _0301_
*336 _0302_
*337 _0303_
*338 _0304_
*339 _0305_
*340 _0306_
*341 _0307_
*342 _0308_
*343 _0309_
*344 _0310_
*345 _0311_
*346 _0312_
*347 _0313_
*348 _0314_
*349 _0315_
*350 _0316_
*351 _0317_
*352 _0318_
*353 _0319_
*354 _0320_
*355 _0321_
*356 _0322_
*357 _0323_
*358 _0324_
*359 _0325_
*360 _0326_
*361 _0327_
*362 _0328_
*363 _0329_
*364 _0330_
*365 _0331_
*366 _0332_
*367 _0333_
*368 _0334_
*369 _0335_
*370 _0336_
*371 _0337_
*372 _0338_
*373 _0339_
*374 _0340_
*375 _0341_
*376 _0342_
*377 _0343_
*378 _0344_
*379 _0345_
*380 _0346_
*381 _0347_
*382 _0348_
*383 _0349_
*384 _0350_
*385 _0351_
*386 _0352_
*387 _0353_
*388 _0354_
*389 _0355_
*390 _0356_
*391 _0357_
*392 _0358_
*393 _0359_
*394 _0360_
*395 _0361_
*396 _0362_
*397 _0363_
*398 _0364_
*399 _0365_
*400 _0366_
*401 _0367_
*402 _0368_
*403 _0369_
*404 _0370_
*405 _0371_
*406 _0372_
*407 _0373_
*408 _0374_
*409 _0375_
*410 _0376_
*411 _0377_
*412 _0378_
*413 _0379_
*414 _0380_
*415 _0381_
*416 _0382_
*417 _0383_
*418 _0384_
*419 _0385_
*420 _0386_
*421 _0387_
*422 _0388_
*423 _0389_
*424 _0390_
*425 _0391_
*426 _0392_
*427 _0393_
*428 _0394_
*429 _0395_
*430 _0396_
*431 _0397_
*432 _0398_
*433 _0399_
*434 _0400_
*435 _0401_
*436 _0402_
*437 _0403_
*438 _0404_
*439 _0405_
*440 _0406_
*441 _0407_
*442 _0408_
*443 _0409_
*444 _0410_
*445 _0411_
*446 _0412_
*447 _0413_
*448 _0414_
*449 _0415_
*450 _0416_
*451 _0417_
*452 _0418_
*453 _0419_
*454 _0420_
*455 _0421_
*456 _0422_
*457 _0423_
*458 _0424_
*459 _0425_
*460 _0426_
*461 _0427_
*462 _0428_
*463 _0429_
*464 _0430_
*465 _0431_
*466 _0432_
*467 _0433_
*468 _0434_
*469 _0435_
*470 _0436_
*471 _0437_
*472 _0438_
*473 _0439_
*474 _0440_
*475 _0441_
*476 _0442_
*477 _0443_
*478 _0444_
*479 _0445_
*480 _0446_
*481 _0447_
*482 _0448_
*483 _0449_
*484 _0450_
*485 _0451_
*486 _0452_
*487 _0453_
*488 _0454_
*489 _0455_
*490 _0456_
*491 _0457_
*492 _0458_
*493 _0459_
*494 _0460_
*495 _0461_
*496 _0462_
*497 _0463_
*498 _0464_
*499 _0465_
*500 _0466_
*501 _0467_
*502 _0468_
*503 _0469_
*504 _0470_
*505 _0471_
*506 _0472_
*507 _0473_
*508 _0474_
*509 _0475_
*510 _0476_
*511 _0477_
*512 _0478_
*513 _0479_
*514 _0480_
*515 _0481_
*516 _0482_
*517 _0483_
*518 _0484_
*519 _0485_
*520 _0486_
*521 _0487_
*522 _0488_
*523 _0489_
*524 _0490_
*525 _0491_
*526 _0492_
*527 _0493_
*528 _0494_
*529 _0495_
*530 _0496_
*531 _0497_
*532 _0498_
*533 _0499_
*534 _0500_
*535 _0501_
*536 _0502_
*537 _0503_
*538 _0504_
*539 _0505_
*540 _0506_
*541 _0507_
*542 _0508_
*543 _0509_
*544 _0510_
*545 _0511_
*546 _0512_
*547 _0513_
*548 _0514_
*549 _0515_
*550 _0516_
*551 _0517_
*552 _0518_
*553 _0519_
*554 _0520_
*555 _0521_
*556 _0522_
*557 _0523_
*558 _0524_
*559 _0525_
*560 _0526_
*561 _0527_
*562 _0528_
*563 _0529_
*564 _0530_
*565 _0531_
*566 _0532_
*567 _0533_
*568 _0534_
*569 _0535_
*570 _0536_
*571 _0537_
*572 _0538_
*573 _0539_
*574 _0540_
*575 _0541_
*576 _0542_
*577 _0543_
*578 _0544_
*579 _0545_
*580 _0546_
*581 _0547_
*582 _0548_
*583 _0549_
*584 _0550_
*585 _0551_
*586 _0552_
*587 _0553_
*588 _0554_
*589 _0555_
*590 _0556_
*591 _0557_
*592 _0558_
*593 _0559_
*594 _0560_
*595 _0561_
*596 _0562_
*597 _0563_
*598 _0564_
*599 _0565_
*600 _0566_
*601 _0567_
*602 _0568_
*603 _0569_
*604 _0570_
*605 _0571_
*606 _0572_
*607 _0573_
*608 _0574_
*609 _0575_
*610 _0576_
*611 _0577_
*612 _0578_
*613 _0579_
*614 _0580_
*615 _0581_
*616 _0582_
*617 _0583_
*618 _0584_
*619 _0585_
*620 _0586_
*621 _0587_
*622 _0588_
*623 _0589_
*624 _0590_
*625 _0591_
*626 _0592_
*627 _0593_
*628 _0594_
*629 _0595_
*630 _0596_
*631 _0597_
*632 _0598_
*633 _0599_
*634 _0600_
*635 _0601_
*636 _0602_
*637 _0603_
*638 _0604_
*639 _0605_
*640 _0606_
*641 _0607_
*642 _0608_
*643 _0609_
*644 _0610_
*645 _0611_
*646 _0612_
*647 _0613_
*648 _0614_
*649 _0615_
*650 _0616_
*651 _0617_
*652 _0618_
*653 _0619_
*654 _0620_
*655 _0621_
*656 _0622_
*657 _0623_
*658 _0624_
*659 _0625_
*660 _0626_
*661 _0627_
*662 _0628_
*663 _0629_
*664 _0630_
*665 _0631_
*666 _0632_
*667 _0633_
*668 _0634_
*669 _0635_
*670 _0636_
*671 _0637_
*672 _0638_
*673 _0639_
*674 _0640_
*675 _0641_
*676 _0642_
*677 _0643_
*678 _0644_
*679 _0645_
*680 _0646_
*681 _0647_
*682 _0648_
*683 _0649_
*684 _0650_
*685 _0651_
*686 _0652_
*687 _0653_
*688 _0654_
*689 _0655_
*690 _0656_
*691 _0657_
*692 _0658_
*693 _0659_
*694 _0660_
*695 _0661_
*696 _0662_
*697 _0663_
*698 _0664_
*699 _0665_
*700 _0666_
*701 _0667_
*702 _0668_
*703 _0669_
*704 _0670_
*705 clknet_0_wb_clk_i
*706 clknet_2_0__leaf_wb_clk_i
*707 clknet_2_1__leaf_wb_clk_i
*708 clknet_2_2__leaf_wb_clk_i
*709 clknet_2_3__leaf_wb_clk_i
*710 net1
*711 net10
*712 net100
*713 net101
*714 net102
*715 net103
*716 net104
*717 net105
*718 net106
*719 net107
*720 net108
*721 net109
*722 net11
*723 net110
*724 net111
*725 net112
*726 net113
*727 net114
*728 net115
*729 net116
*730 net117
*731 net118
*732 net119
*733 net12
*734 net120
*735 net121
*736 net122
*737 net123
*738 net124
*739 net125
*740 net126
*741 net127
*742 net128
*743 net129
*744 net13
*745 net130
*746 net131
*747 net132
*748 net133
*749 net134
*750 net135
*751 net136
*752 net137
*753 net138
*754 net139
*755 net14
*756 net140
*757 net141
*758 net142
*759 net143
*760 net144
*761 net145
*762 net146
*763 net15
*764 net16
*765 net17
*766 net18
*767 net19
*768 net2
*769 net20
*770 net21
*771 net22
*772 net23
*773 net24
*774 net25
*775 net26
*776 net27
*777 net28
*778 net29
*779 net3
*780 net30
*781 net31
*782 net32
*783 net33
*784 net34
*785 net35
*786 net36
*787 net37
*788 net38
*789 net39
*790 net4
*791 net40
*792 net41
*793 net42
*794 net43
*795 net44
*796 net45
*797 net46
*798 net47
*799 net48
*800 net49
*801 net5
*802 net50
*803 net51
*804 net52
*805 net53
*806 net54
*807 net55
*808 net6
*809 net64
*810 net65
*811 net66
*812 net67
*813 net68
*814 net69
*815 net7
*816 net70
*817 net71
*818 net72
*819 net73
*820 net74
*821 net75
*822 net76
*823 net77
*824 net78
*825 net79
*826 net8
*827 net80
*828 net81
*829 net82
*830 net83
*831 net84
*832 net85
*833 net86
*834 net87
*835 net88
*836 net89
*837 net9
*838 net90
*839 net91
*840 net92
*841 net93
*842 net94
*843 net95
*844 net96
*845 net97
*846 net98
*847 net99
*848 simplecpu\.ALU\.a\[0\]
*849 simplecpu\.ALU\.a\[1\]
*850 simplecpu\.ALU\.a\[2\]
*851 simplecpu\.ALU\.a\[3\]
*852 simplecpu\.ALU\.a\[4\]
*853 simplecpu\.ALU\.a\[5\]
*854 simplecpu\.ALU\.a\[6\]
*855 simplecpu\.ALU\.a\[7\]
*856 simplecpu\.ALU\.b\[0\]
*857 simplecpu\.ALU\.b\[1\]
*858 simplecpu\.ALU\.b\[2\]
*859 simplecpu\.ALU\.b\[3\]
*860 simplecpu\.ALU\.b\[4\]
*861 simplecpu\.ALU\.b\[5\]
*862 simplecpu\.ALU\.b\[6\]
*863 simplecpu\.ALU\.b\[7\]
*864 simplecpu\.ALU\.sub
*865 simplecpu\.cpu_halt
*866 simplecpu\.cycle\[0\]
*867 simplecpu\.cycle\[1\]
*868 simplecpu\.cycle\[2\]
*869 simplecpu\.flag_carry
*870 simplecpu\.flag_zero
*871 simplecpu\.instruction\[0\]
*872 simplecpu\.instruction\[1\]
*873 simplecpu\.instruction\[2\]
*874 simplecpu\.instruction\[3\]
*875 simplecpu\.mem_pc_data\[0\]
*876 simplecpu\.mem_pc_data\[1\]
*877 simplecpu\.mem_pc_data\[2\]
*878 simplecpu\.mem_pc_data\[3\]
*879 simplecpu\.pc_reg\[0\]
*880 simplecpu\.pc_reg\[1\]
*881 simplecpu\.pc_reg\[2\]
*882 simplecpu\.pc_reg\[3\]
*883 simplecpu\.prev_op\[0\]
*884 simplecpu\.prev_op\[1\]
*885 simplecpu\.prev_op\[2\]
*886 simplecpu\.prev_op\[3\]
*887 simplecpu\.ram\[0\]\[0\]
*888 simplecpu\.ram\[0\]\[1\]
*889 simplecpu\.ram\[0\]\[2\]
*890 simplecpu\.ram\[0\]\[3\]
*891 simplecpu\.ram\[0\]\[4\]
*892 simplecpu\.ram\[0\]\[5\]
*893 simplecpu\.ram\[0\]\[6\]
*894 simplecpu\.ram\[0\]\[7\]
*895 simplecpu\.ram\[10\]\[0\]
*896 simplecpu\.ram\[10\]\[1\]
*897 simplecpu\.ram\[10\]\[2\]
*898 simplecpu\.ram\[10\]\[3\]
*899 simplecpu\.ram\[10\]\[4\]
*900 simplecpu\.ram\[10\]\[5\]
*901 simplecpu\.ram\[10\]\[6\]
*902 simplecpu\.ram\[10\]\[7\]
*903 simplecpu\.ram\[11\]\[0\]
*904 simplecpu\.ram\[11\]\[1\]
*905 simplecpu\.ram\[11\]\[2\]
*906 simplecpu\.ram\[11\]\[3\]
*907 simplecpu\.ram\[11\]\[4\]
*908 simplecpu\.ram\[11\]\[5\]
*909 simplecpu\.ram\[11\]\[6\]
*910 simplecpu\.ram\[11\]\[7\]
*911 simplecpu\.ram\[12\]\[0\]
*912 simplecpu\.ram\[12\]\[1\]
*913 simplecpu\.ram\[12\]\[2\]
*914 simplecpu\.ram\[12\]\[3\]
*915 simplecpu\.ram\[12\]\[4\]
*916 simplecpu\.ram\[12\]\[5\]
*917 simplecpu\.ram\[12\]\[6\]
*918 simplecpu\.ram\[12\]\[7\]
*919 simplecpu\.ram\[13\]\[0\]
*920 simplecpu\.ram\[13\]\[1\]
*921 simplecpu\.ram\[13\]\[2\]
*922 simplecpu\.ram\[13\]\[3\]
*923 simplecpu\.ram\[13\]\[4\]
*924 simplecpu\.ram\[13\]\[5\]
*925 simplecpu\.ram\[13\]\[6\]
*926 simplecpu\.ram\[13\]\[7\]
*927 simplecpu\.ram\[14\]\[0\]
*928 simplecpu\.ram\[14\]\[1\]
*929 simplecpu\.ram\[14\]\[2\]
*930 simplecpu\.ram\[14\]\[3\]
*931 simplecpu\.ram\[14\]\[4\]
*932 simplecpu\.ram\[14\]\[5\]
*933 simplecpu\.ram\[14\]\[6\]
*934 simplecpu\.ram\[14\]\[7\]
*935 simplecpu\.ram\[15\]\[0\]
*936 simplecpu\.ram\[15\]\[1\]
*937 simplecpu\.ram\[15\]\[2\]
*938 simplecpu\.ram\[15\]\[3\]
*939 simplecpu\.ram\[15\]\[4\]
*940 simplecpu\.ram\[15\]\[5\]
*941 simplecpu\.ram\[15\]\[6\]
*942 simplecpu\.ram\[15\]\[7\]
*943 simplecpu\.ram\[1\]\[0\]
*944 simplecpu\.ram\[1\]\[1\]
*945 simplecpu\.ram\[1\]\[2\]
*946 simplecpu\.ram\[1\]\[3\]
*947 simplecpu\.ram\[1\]\[4\]
*948 simplecpu\.ram\[1\]\[5\]
*949 simplecpu\.ram\[1\]\[6\]
*950 simplecpu\.ram\[1\]\[7\]
*951 simplecpu\.ram\[2\]\[0\]
*952 simplecpu\.ram\[2\]\[1\]
*953 simplecpu\.ram\[2\]\[2\]
*954 simplecpu\.ram\[2\]\[3\]
*955 simplecpu\.ram\[2\]\[4\]
*956 simplecpu\.ram\[2\]\[5\]
*957 simplecpu\.ram\[2\]\[6\]
*958 simplecpu\.ram\[2\]\[7\]
*959 simplecpu\.ram\[3\]\[0\]
*960 simplecpu\.ram\[3\]\[1\]
*961 simplecpu\.ram\[3\]\[2\]
*962 simplecpu\.ram\[3\]\[3\]
*963 simplecpu\.ram\[3\]\[4\]
*964 simplecpu\.ram\[3\]\[5\]
*965 simplecpu\.ram\[3\]\[6\]
*966 simplecpu\.ram\[3\]\[7\]
*967 simplecpu\.ram\[4\]\[0\]
*968 simplecpu\.ram\[4\]\[1\]
*969 simplecpu\.ram\[4\]\[2\]
*970 simplecpu\.ram\[4\]\[3\]
*971 simplecpu\.ram\[4\]\[4\]
*972 simplecpu\.ram\[4\]\[5\]
*973 simplecpu\.ram\[4\]\[6\]
*974 simplecpu\.ram\[4\]\[7\]
*975 simplecpu\.ram\[5\]\[0\]
*976 simplecpu\.ram\[5\]\[1\]
*977 simplecpu\.ram\[5\]\[2\]
*978 simplecpu\.ram\[5\]\[3\]
*979 simplecpu\.ram\[5\]\[4\]
*980 simplecpu\.ram\[5\]\[5\]
*981 simplecpu\.ram\[5\]\[6\]
*982 simplecpu\.ram\[5\]\[7\]
*983 simplecpu\.ram\[6\]\[0\]
*984 simplecpu\.ram\[6\]\[1\]
*985 simplecpu\.ram\[6\]\[2\]
*986 simplecpu\.ram\[6\]\[3\]
*987 simplecpu\.ram\[6\]\[4\]
*988 simplecpu\.ram\[6\]\[5\]
*989 simplecpu\.ram\[6\]\[6\]
*990 simplecpu\.ram\[6\]\[7\]
*991 simplecpu\.ram\[7\]\[0\]
*992 simplecpu\.ram\[7\]\[1\]
*993 simplecpu\.ram\[7\]\[2\]
*994 simplecpu\.ram\[7\]\[3\]
*995 simplecpu\.ram\[7\]\[4\]
*996 simplecpu\.ram\[7\]\[5\]
*997 simplecpu\.ram\[7\]\[6\]
*998 simplecpu\.ram\[7\]\[7\]
*999 simplecpu\.ram\[8\]\[0\]
*1000 simplecpu\.ram\[8\]\[1\]
*1001 simplecpu\.ram\[8\]\[2\]
*1002 simplecpu\.ram\[8\]\[3\]
*1003 simplecpu\.ram\[8\]\[4\]
*1004 simplecpu\.ram\[8\]\[5\]
*1005 simplecpu\.ram\[8\]\[6\]
*1006 simplecpu\.ram\[8\]\[7\]
*1007 simplecpu\.ram\[9\]\[0\]
*1008 simplecpu\.ram\[9\]\[1\]
*1009 simplecpu\.ram\[9\]\[2\]
*1010 simplecpu\.ram\[9\]\[3\]
*1011 simplecpu\.ram\[9\]\[4\]
*1012 simplecpu\.ram\[9\]\[5\]
*1013 simplecpu\.ram\[9\]\[6\]
*1014 simplecpu\.ram\[9\]\[7\]
*1015 slow_clock\.clk
*1016 slow_clock\.count\[0\]
*1017 slow_clock\.count\[10\]
*1018 slow_clock\.count\[11\]
*1019 slow_clock\.count\[12\]
*1020 slow_clock\.count\[13\]
*1021 slow_clock\.count\[14\]
*1022 slow_clock\.count\[15\]
*1023 slow_clock\.count\[16\]
*1024 slow_clock\.count\[17\]
*1025 slow_clock\.count\[18\]
*1026 slow_clock\.count\[19\]
*1027 slow_clock\.count\[1\]
*1028 slow_clock\.count\[20\]
*1029 slow_clock\.count\[21\]
*1030 slow_clock\.count\[22\]
*1031 slow_clock\.count\[23\]
*1032 slow_clock\.count\[24\]
*1033 slow_clock\.count\[25\]
*1034 slow_clock\.count\[26\]
*1035 slow_clock\.count\[27\]
*1036 slow_clock\.count\[28\]
*1037 slow_clock\.count\[29\]
*1038 slow_clock\.count\[2\]
*1039 slow_clock\.count\[30\]
*1040 slow_clock\.count\[31\]
*1041 slow_clock\.count\[3\]
*1042 slow_clock\.count\[4\]
*1043 slow_clock\.count\[5\]
*1044 slow_clock\.count\[6\]
*1045 slow_clock\.count\[7\]
*1046 slow_clock\.count\[8\]
*1047 slow_clock\.count\[9\]
*1048 ANTENNA__0671__A
*1049 ANTENNA__0672__A
*1050 ANTENNA__0673__A
*1051 ANTENNA__0678__A
*1052 ANTENNA__0680__B1
*1053 ANTENNA__0685__A_N
*1054 ANTENNA__0685__B
*1055 ANTENNA__0686__A
*1056 ANTENNA__0687__A0
*1057 ANTENNA__0687__S
*1058 ANTENNA__0688__A0
*1059 ANTENNA__0688__S
*1060 ANTENNA__0696__A0
*1061 ANTENNA__0696__S
*1062 ANTENNA__0697__A2
*1063 ANTENNA__0698__A0
*1064 ANTENNA__0698__S
*1065 ANTENNA__0702__A0
*1066 ANTENNA__0702__S
*1067 ANTENNA__0703__S
*1068 ANTENNA__0704__A0
*1069 ANTENNA__0704__S
*1070 ANTENNA__0705__A1
*1071 ANTENNA__0705__S
*1072 ANTENNA__0706__A0
*1073 ANTENNA__0706__S
*1074 ANTENNA__0707__S
*1075 ANTENNA__0708__A0
*1076 ANTENNA__0708__S
*1077 ANTENNA__0709__S
*1078 ANTENNA__0710__S
*1079 ANTENNA__0711__A1
*1080 ANTENNA__0711__S
*1081 ANTENNA__0712__S
*1082 ANTENNA__0713__S
*1083 ANTENNA__0714__S
*1084 ANTENNA__0715__A1
*1085 ANTENNA__0715__S
*1086 ANTENNA__0716__S
*1087 ANTENNA__0717__A1
*1088 ANTENNA__0717__S
*1089 ANTENNA__0720__S
*1090 ANTENNA__0721__A1
*1091 ANTENNA__0721__S
*1092 ANTENNA__0722__S
*1093 ANTENNA__0723__S
*1094 ANTENNA__0724__A1
*1095 ANTENNA__0724__S
*1096 ANTENNA__0725__S
*1097 ANTENNA__0726__A1
*1098 ANTENNA__0726__S
*1099 ANTENNA__0727__A1
*1100 ANTENNA__0727__S
*1101 ANTENNA__0730__A2
*1102 ANTENNA__0733__S
*1103 ANTENNA__0734__A0
*1104 ANTENNA__0734__S
*1105 ANTENNA__0735__S
*1106 ANTENNA__0736__S
*1107 ANTENNA__0737__A0
*1108 ANTENNA__0737__S
*1109 ANTENNA__0738__S
*1110 ANTENNA__0739__A0
*1111 ANTENNA__0739__S
*1112 ANTENNA__0740__A0
*1113 ANTENNA__0740__S
*1114 ANTENNA__0743__S
*1115 ANTENNA__0744__A0
*1116 ANTENNA__0744__S
*1117 ANTENNA__0745__S
*1118 ANTENNA__0746__S
*1119 ANTENNA__0747__A0
*1120 ANTENNA__0747__S
*1121 ANTENNA__0748__S
*1122 ANTENNA__0749__A0
*1123 ANTENNA__0749__S
*1124 ANTENNA__0750__A0
*1125 ANTENNA__0750__S
*1126 ANTENNA__0752__S
*1127 ANTENNA__0753__A1
*1128 ANTENNA__0753__S
*1129 ANTENNA__0754__S
*1130 ANTENNA__0755__S
*1131 ANTENNA__0756__A1
*1132 ANTENNA__0756__S
*1133 ANTENNA__0757__S
*1134 ANTENNA__0758__A1
*1135 ANTENNA__0758__S
*1136 ANTENNA__0759__A1
*1137 ANTENNA__0759__S
*1138 ANTENNA__0761__S
*1139 ANTENNA__0762__A1
*1140 ANTENNA__0762__S
*1141 ANTENNA__0763__S
*1142 ANTENNA__0764__S
*1143 ANTENNA__0765__A1
*1144 ANTENNA__0765__S
*1145 ANTENNA__0766__S
*1146 ANTENNA__0767__A1
*1147 ANTENNA__0767__S
*1148 ANTENNA__0768__A1
*1149 ANTENNA__0768__S
*1150 ANTENNA__0770__A
*1151 ANTENNA__0772__A1
*1152 ANTENNA__0772__B1
*1153 ANTENNA__0775__A
*1154 ANTENNA__0776__A1
*1155 ANTENNA__0776__B1
*1156 ANTENNA__0777__C1
*1157 ANTENNA__0779__A
*1158 ANTENNA__0781__A1
*1159 ANTENNA__0781__B1
*1160 ANTENNA__0784__A
*1161 ANTENNA__0785__A1
*1162 ANTENNA__0785__B1
*1163 ANTENNA__0786__C1
*1164 ANTENNA__0788__A0
*1165 ANTENNA__0788__S
*1166 ANTENNA__0790__A
*1167 ANTENNA__0792__A1
*1168 ANTENNA__0792__B1
*1169 ANTENNA__0795__A
*1170 ANTENNA__0796__A1
*1171 ANTENNA__0796__B1
*1172 ANTENNA__0797__C1
*1173 ANTENNA__0799__A
*1174 ANTENNA__0801__A1
*1175 ANTENNA__0801__B1
*1176 ANTENNA__0804__A
*1177 ANTENNA__0805__A1
*1178 ANTENNA__0805__B1
*1179 ANTENNA__0806__C1
*1180 ANTENNA__0808__A0
*1181 ANTENNA__0808__S
*1182 ANTENNA__0810__A
*1183 ANTENNA__0812__A
*1184 ANTENNA__0816__A1
*1185 ANTENNA__0816__C1
*1186 ANTENNA__0817__A1
*1187 ANTENNA__0817__C1
*1188 ANTENNA__0819__A
*1189 ANTENNA__0821__A
*1190 ANTENNA__0823__A
*1191 ANTENNA__0825__A1
*1192 ANTENNA__0825__C1
*1193 ANTENNA__0826__A1
*1194 ANTENNA__0826__C1
*1195 ANTENNA__0827__A
*1196 ANTENNA__0827__B
*1197 ANTENNA__0828__A1
*1198 ANTENNA__0830__A
*1199 ANTENNA__0832__A1
*1200 ANTENNA__0832__B1
*1201 ANTENNA__0835__A
*1202 ANTENNA__0836__A1
*1203 ANTENNA__0836__B1
*1204 ANTENNA__0837__C1
*1205 ANTENNA__0839__A
*1206 ANTENNA__0841__A1
*1207 ANTENNA__0841__B1
*1208 ANTENNA__0844__A
*1209 ANTENNA__0845__A1
*1210 ANTENNA__0845__B1
*1211 ANTENNA__0846__C1
*1212 ANTENNA__0848__A0
*1213 ANTENNA__0848__S
*1214 ANTENNA__0852__A1
*1215 ANTENNA__0852__B1
*1216 ANTENNA__0854__S
*1217 ANTENNA__0855__A
*1218 ANTENNA__0856__B1
*1219 ANTENNA__0857__C1
*1220 ANTENNA__0859__A
*1221 ANTENNA__0861__A1
*1222 ANTENNA__0861__B1
*1223 ANTENNA__0864__A
*1224 ANTENNA__0865__A1
*1225 ANTENNA__0865__B1
*1226 ANTENNA__0866__C1
*1227 ANTENNA__0868__S
*1228 ANTENNA__0869__S
*1229 ANTENNA__0870__A
*1230 ANTENNA__0872__A1
*1231 ANTENNA__0872__B1
*1232 ANTENNA__0875__A
*1233 ANTENNA__0876__A1
*1234 ANTENNA__0876__B1
*1235 ANTENNA__0877__C1
*1236 ANTENNA__0879__A
*1237 ANTENNA__0881__A1
*1238 ANTENNA__0881__B1
*1239 ANTENNA__0884__A
*1240 ANTENNA__0885__A1
*1241 ANTENNA__0885__B1
*1242 ANTENNA__0886__C1
*1243 ANTENNA__0888__S
*1244 ANTENNA__0890__A
*1245 ANTENNA__0892__A1
*1246 ANTENNA__0892__B1
*1247 ANTENNA__0895__A
*1248 ANTENNA__0896__A1
*1249 ANTENNA__0896__B1
*1250 ANTENNA__0897__C1
*1251 ANTENNA__0899__A
*1252 ANTENNA__0901__A1
*1253 ANTENNA__0901__B1
*1254 ANTENNA__0904__A
*1255 ANTENNA__0905__A1
*1256 ANTENNA__0905__B1
*1257 ANTENNA__0906__C1
*1258 ANTENNA__0908__S
*1259 ANTENNA__0910__A
*1260 ANTENNA__0912__A1
*1261 ANTENNA__0912__C1
*1262 ANTENNA__0915__A
*1263 ANTENNA__0916__A1
*1264 ANTENNA__0916__B1
*1265 ANTENNA__0917__B1
*1266 ANTENNA__0919__A
*1267 ANTENNA__0921__A1
*1268 ANTENNA__0921__C1
*1269 ANTENNA__0923__A
*1270 ANTENNA__0925__A1
*1271 ANTENNA__0925__C1
*1272 ANTENNA__0926__A1
*1273 ANTENNA__0927__S
*1274 ANTENNA__0930__S
*1275 ANTENNA__0931__A0
*1276 ANTENNA__0931__S
*1277 ANTENNA__0932__S
*1278 ANTENNA__0933__S
*1279 ANTENNA__0934__A0
*1280 ANTENNA__0934__S
*1281 ANTENNA__0935__S
*1282 ANTENNA__0936__A0
*1283 ANTENNA__0936__S
*1284 ANTENNA__0937__A0
*1285 ANTENNA__0937__S
*1286 ANTENNA__0939__S
*1287 ANTENNA__0940__A0
*1288 ANTENNA__0940__S
*1289 ANTENNA__0941__S
*1290 ANTENNA__0942__S
*1291 ANTENNA__0943__A0
*1292 ANTENNA__0943__S
*1293 ANTENNA__0944__S
*1294 ANTENNA__0945__A0
*1295 ANTENNA__0945__S
*1296 ANTENNA__0946__A0
*1297 ANTENNA__0946__S
*1298 ANTENNA__0948__S
*1299 ANTENNA__0949__A0
*1300 ANTENNA__0949__S
*1301 ANTENNA__0950__S
*1302 ANTENNA__0951__S
*1303 ANTENNA__0952__A0
*1304 ANTENNA__0952__S
*1305 ANTENNA__0953__S
*1306 ANTENNA__0954__A0
*1307 ANTENNA__0954__S
*1308 ANTENNA__0955__A0
*1309 ANTENNA__0955__S
*1310 ANTENNA__0958__S
*1311 ANTENNA__0959__A0
*1312 ANTENNA__0959__S
*1313 ANTENNA__0960__S
*1314 ANTENNA__0961__S
*1315 ANTENNA__0962__A0
*1316 ANTENNA__0962__S
*1317 ANTENNA__0963__S
*1318 ANTENNA__0964__A0
*1319 ANTENNA__0964__S
*1320 ANTENNA__0965__A0
*1321 ANTENNA__0965__S
*1322 ANTENNA__0976__A0
*1323 ANTENNA__0977__A0
*1324 ANTENNA__0978__A0
*1325 ANTENNA__0979__A0
*1326 ANTENNA__0981__A1
*1327 ANTENNA__0982__A1
*1328 ANTENNA__0983__A1
*1329 ANTENNA__0992__S0
*1330 ANTENNA__0992__S1
*1331 ANTENNA__0993__A
*1332 ANTENNA__0994__S0
*1333 ANTENNA__0994__S1
*1334 ANTENNA__0995__A
*1335 ANTENNA__0996__S0
*1336 ANTENNA__0996__S1
*1337 ANTENNA__0997__S0
*1338 ANTENNA__0997__S1
*1339 ANTENNA__0998__S
*1340 ANTENNA__0999__A
*1341 ANTENNA__1000__A1
*1342 ANTENNA__1001__B
*1343 ANTENNA__1002__C1
*1344 ANTENNA__1003__S0
*1345 ANTENNA__1003__S1
*1346 ANTENNA__1004__A
*1347 ANTENNA__1005__S0
*1348 ANTENNA__1005__S1
*1349 ANTENNA__1006__A
*1350 ANTENNA__1007__S0
*1351 ANTENNA__1007__S1
*1352 ANTENNA__1008__S0
*1353 ANTENNA__1008__S1
*1354 ANTENNA__1009__S
*1355 ANTENNA__1010__A
*1356 ANTENNA__1011__A1
*1357 ANTENNA__1012__B
*1358 ANTENNA__1013__C1
*1359 ANTENNA__1014__S0
*1360 ANTENNA__1014__S1
*1361 ANTENNA__1015__S0
*1362 ANTENNA__1015__S1
*1363 ANTENNA__1016__S
*1364 ANTENNA__1017__S0
*1365 ANTENNA__1017__S1
*1366 ANTENNA__1018__S0
*1367 ANTENNA__1018__S1
*1368 ANTENNA__1019__S
*1369 ANTENNA__1020__S
*1370 ANTENNA__1022__A
*1371 ANTENNA__1023__S0
*1372 ANTENNA__1023__S1
*1373 ANTENNA__1024__A
*1374 ANTENNA__1025__S0
*1375 ANTENNA__1025__S1
*1376 ANTENNA__1026__A
*1377 ANTENNA__1027__S0
*1378 ANTENNA__1027__S1
*1379 ANTENNA__1028__S0
*1380 ANTENNA__1028__S1
*1381 ANTENNA__1029__S
*1382 ANTENNA__1030__A
*1383 ANTENNA__1031__A1
*1384 ANTENNA__1034__S0
*1385 ANTENNA__1034__S1
*1386 ANTENNA__1035__A
*1387 ANTENNA__1036__S0
*1388 ANTENNA__1036__S1
*1389 ANTENNA__1037__A
*1390 ANTENNA__1038__S0
*1391 ANTENNA__1038__S1
*1392 ANTENNA__1039__S0
*1393 ANTENNA__1039__S1
*1394 ANTENNA__1040__S
*1395 ANTENNA__1042__A1
*1396 ANTENNA__1044__C1
*1397 ANTENNA__1045__S0
*1398 ANTENNA__1045__S1
*1399 ANTENNA__1046__A
*1400 ANTENNA__1047__S0
*1401 ANTENNA__1047__S1
*1402 ANTENNA__1048__A
*1403 ANTENNA__1049__S0
*1404 ANTENNA__1049__S1
*1405 ANTENNA__1050__S0
*1406 ANTENNA__1050__S1
*1407 ANTENNA__1051__S
*1408 ANTENNA__1052__A
*1409 ANTENNA__1053__A1
*1410 ANTENNA__1055__C1
*1411 ANTENNA__1056__S0
*1412 ANTENNA__1056__S1
*1413 ANTENNA__1057__S0
*1414 ANTENNA__1057__S1
*1415 ANTENNA__1058__S
*1416 ANTENNA__1059__S0
*1417 ANTENNA__1059__S1
*1418 ANTENNA__1060__S0
*1419 ANTENNA__1060__S1
*1420 ANTENNA__1061__S
*1421 ANTENNA__1062__A_N
*1422 ANTENNA__1063__A1
*1423 ANTENNA__1066__S0
*1424 ANTENNA__1066__S1
*1425 ANTENNA__1067__S0
*1426 ANTENNA__1067__S1
*1427 ANTENNA__1068__S
*1428 ANTENNA__1069__S0
*1429 ANTENNA__1069__S1
*1430 ANTENNA__1070__S0
*1431 ANTENNA__1070__S1
*1432 ANTENNA__1071__S
*1433 ANTENNA__1072__A_N
*1434 ANTENNA__1073__A1
*1435 ANTENNA__1078__A
*1436 ANTENNA__1080__A
*1437 ANTENNA__1081__A1
*1438 ANTENNA__1083__A1
*1439 ANTENNA__1083__C1
*1440 ANTENNA__1084__A
*1441 ANTENNA__1085__A1
*1442 ANTENNA__1086__A1
*1443 ANTENNA__1089__A
*1444 ANTENNA__1090__B1
*1445 ANTENNA__1094__A1
*1446 ANTENNA__1094__C1
*1447 ANTENNA__1095__A0
*1448 ANTENNA__1098__A
*1449 ANTENNA__1099__A
*1450 ANTENNA__1103__A0
*1451 ANTENNA__1104__A
*1452 ANTENNA__1109__A
*1453 ANTENNA__1110__B1
*1454 ANTENNA__1116__A1
*1455 ANTENNA__1121__C
*1456 ANTENNA__1126__C1
*1457 ANTENNA__1136__C1
*1458 ANTENNA__1162__B2
*1459 ANTENNA__1163__B1
*1460 ANTENNA__1165__A1
*1461 ANTENNA__1167__B
*1462 ANTENNA__1168__A1
*1463 ANTENNA__1169__A
*1464 ANTENNA__1171__A
*1465 ANTENNA__1172__A2
*1466 ANTENNA__1172__B1
*1467 ANTENNA__1173__A
*1468 ANTENNA__1173__B
*1469 ANTENNA__1175__A1
*1470 ANTENNA__1177__A
*1471 ANTENNA__1179__A
*1472 ANTENNA__1190__S
*1473 ANTENNA__1191__A1
*1474 ANTENNA__1191__S
*1475 ANTENNA__1192__S
*1476 ANTENNA__1193__S
*1477 ANTENNA__1194__A1
*1478 ANTENNA__1194__S
*1479 ANTENNA__1195__S
*1480 ANTENNA__1196__A1
*1481 ANTENNA__1196__S
*1482 ANTENNA__1197__A1
*1483 ANTENNA__1197__S
*1484 ANTENNA__1199__S
*1485 ANTENNA__1200__A1
*1486 ANTENNA__1200__S
*1487 ANTENNA__1201__S
*1488 ANTENNA__1202__S
*1489 ANTENNA__1203__A1
*1490 ANTENNA__1203__S
*1491 ANTENNA__1204__S
*1492 ANTENNA__1205__A1
*1493 ANTENNA__1205__S
*1494 ANTENNA__1206__A1
*1495 ANTENNA__1206__S
*1496 ANTENNA__1208__S
*1497 ANTENNA__1209__A0
*1498 ANTENNA__1209__S
*1499 ANTENNA__1210__S
*1500 ANTENNA__1211__S
*1501 ANTENNA__1212__A0
*1502 ANTENNA__1212__S
*1503 ANTENNA__1213__S
*1504 ANTENNA__1214__A0
*1505 ANTENNA__1214__S
*1506 ANTENNA__1215__A0
*1507 ANTENNA__1215__S
*1508 ANTENNA__1217__S
*1509 ANTENNA__1218__A0
*1510 ANTENNA__1218__S
*1511 ANTENNA__1219__S
*1512 ANTENNA__1220__S
*1513 ANTENNA__1221__A0
*1514 ANTENNA__1221__S
*1515 ANTENNA__1222__S
*1516 ANTENNA__1223__A0
*1517 ANTENNA__1223__S
*1518 ANTENNA__1224__A0
*1519 ANTENNA__1224__S
*1520 ANTENNA__1226__S
*1521 ANTENNA__1227__A1
*1522 ANTENNA__1227__S
*1523 ANTENNA__1228__S
*1524 ANTENNA__1229__S
*1525 ANTENNA__1230__A1
*1526 ANTENNA__1230__S
*1527 ANTENNA__1231__S
*1528 ANTENNA__1232__A1
*1529 ANTENNA__1232__S
*1530 ANTENNA__1233__A1
*1531 ANTENNA__1233__S
*1532 ANTENNA__1235__S
*1533 ANTENNA__1236__A1
*1534 ANTENNA__1236__S
*1535 ANTENNA__1237__S
*1536 ANTENNA__1238__S
*1537 ANTENNA__1239__A1
*1538 ANTENNA__1239__S
*1539 ANTENNA__1240__S
*1540 ANTENNA__1241__A1
*1541 ANTENNA__1241__S
*1542 ANTENNA__1242__A1
*1543 ANTENNA__1242__S
*1544 ANTENNA__1338__A
*1545 ANTENNA__1342__CLK
*1546 ANTENNA__1343__CLK
*1547 ANTENNA__1350__CLK
*1548 ANTENNA__1351__CLK
*1549 ANTENNA__1358__CLK
*1550 ANTENNA__1359__CLK
*1551 ANTENNA__1366__CLK
*1552 ANTENNA__1367__CLK
*1553 ANTENNA__1374__CLK
*1554 ANTENNA__1375__CLK
*1555 ANTENNA__1382__CLK
*1556 ANTENNA__1383__CLK
*1557 ANTENNA__1426__CLK
*1558 ANTENNA__1484__CLK
*1559 ANTENNA__1485__CLK
*1560 ANTENNA__1492__CLK
*1561 ANTENNA__1493__CLK
*1562 ANTENNA__1508__CLK
*1563 ANTENNA__1509__CLK
*1564 ANTENNA_fanout25_A
*1565 ANTENNA_fanout28_A
*1566 ANTENNA_fanout29_A
*1567 ANTENNA_fanout30_A
*1568 ANTENNA_fanout31_A
*1569 ANTENNA_fanout36_A
*1570 ANTENNA_fanout37_A
*1571 ANTENNA_fanout38_A
*1572 ANTENNA_fanout39_A
*1573 ANTENNA_fanout40_A
*1574 ANTENNA_fanout41_A
*1575 ANTENNA_fanout42_A
*1576 ANTENNA_fanout43_A
*1577 ANTENNA_fanout44_A
*1578 ANTENNA_fanout47_A
*1579 ANTENNA_fanout48_A
*1580 ANTENNA_fanout49_A
*1581 ANTENNA_fanout52_A
*1582 ANTENNA_fanout54_A
*1583 ANTENNA_hold79_A
*1584 ANTENNA_output20_A
*1585 ANTENNA_output21_A
*1586 ANTENNA_output22_A
*1587 FILLER_0_0_103
*1588 FILLER_0_0_106
*1589 FILLER_0_0_109
*1590 FILLER_0_0_113
*1591 FILLER_0_0_12
*1592 FILLER_0_0_120
*1593 FILLER_0_0_130
*1594 FILLER_0_0_133
*1595 FILLER_0_0_139
*1596 FILLER_0_0_15
*1597 FILLER_0_0_150
*1598 FILLER_0_0_153
*1599 FILLER_0_0_156
*1600 FILLER_0_0_159
*1601 FILLER_0_0_162
*1602 FILLER_0_0_165
*1603 FILLER_0_0_169
*1604 FILLER_0_0_172
*1605 FILLER_0_0_175
*1606 FILLER_0_0_178
*1607 FILLER_0_0_18
*1608 FILLER_0_0_181
*1609 FILLER_0_0_184
*1610 FILLER_0_0_188
*1611 FILLER_0_0_191
*1612 FILLER_0_0_194
*1613 FILLER_0_0_197
*1614 FILLER_0_0_200
*1615 FILLER_0_0_203
*1616 FILLER_0_0_206
*1617 FILLER_0_0_209
*1618 FILLER_0_0_21
*1619 FILLER_0_0_212
*1620 FILLER_0_0_215
*1621 FILLER_0_0_218
*1622 FILLER_0_0_221
*1623 FILLER_0_0_225
*1624 FILLER_0_0_231
*1625 FILLER_0_0_234