*SPEF "ieee 1481-1999"
*DESIGN "scoreboard_top"
*DATE "11:11:11 Fri 11 11, 1111"
*VENDOR "OpenRCX"
*PROGRAM "Parallel Extraction"
*VERSION "1.0"
*DESIGN_FLOW "NAME_SCOPE LOCAL" "PIN_CAP NONE"
*DIVIDER /
*DELIMITER :
*BUS_DELIMITER []
*T_UNIT 1 NS
*C_UNIT 1 PF
*R_UNIT 1 OHM
*L_UNIT 1 HENRY

*NAME_MAP
*1 sb_io_in[0]
*2 sb_io_in[1]
*3 sb_io_in[2]
*4 sb_io_in[3]
*5 net34
*6 net44
*7 net35
*8 net36
*9 net37
*10 net38
*11 net39
*12 net40
*13 net41
*14 net42
*15 net43
*16 sb_io_out[0]
*17 sb_io_out[10]
*18 sb_io_out[1]
*19 sb_io_out[2]
*20 sb_io_out[3]
*21 sb_io_out[4]
*22 sb_io_out[5]
*23 sb_io_out[6]
*24 sb_io_out[7]
*25 sb_io_out[8]
*26 sb_io_out[9]
*27 sb_la_data_out[0]
*28 sb_la_data_out[10]
*29 sb_la_data_out[1]
*30 sb_la_data_out[2]
*31 sb_la_data_out[3]
*32 sb_la_data_out[4]
*33 sb_la_data_out[5]
*34 sb_la_data_out[6]
*35 sb_la_data_out[7]
*36 sb_la_data_out[8]
*37 sb_la_data_out[9]
*40 wb_clk_i
*41 wb_rst_i
*42 _0000_
*43 _0001_
*44 _0002_
*45 _0003_
*46 _0004_
*47 _0005_
*48 _0006_
*49 _0007_
*50 _0008_
*51 _0009_
*52 _0010_
*53 _0011_
*54 _0012_
*55 _0013_
*56 _0014_
*57 _0015_
*58 _0016_
*59 _0017_
*60 _0018_
*61 _0019_
*62 _0020_
*63 _0021_
*64 _0022_
*65 _0023_
*66 _0024_
*67 _0025_
*68 _0026_
*69 _0027_
*70 _0028_
*71 _0029_
*72 _0030_
*73 _0031_
*74 _0032_
*75 _0033_
*76 _0034_
*77 _0035_
*78 _0036_
*79 _0037_
*80 _0038_
*81 _0039_
*82 _0040_
*83 _0041_
*84 _0042_
*85 _0043_
*86 _0044_
*87 _0045_
*88 _0046_
*89 _0047_
*90 _0048_
*91 _0049_
*92 _0050_
*93 _0051_
*94 _0052_
*95 _0053_
*96 _0054_
*97 _0055_
*98 _0056_
*99 _0057_
*100 _0058_
*101 _0059_
*102 _0060_
*103 _0061_
*104 _0062_
*105 _0063_
*106 _0064_
*107 _0065_
*108 _0066_
*109 _0067_
*110 _0068_
*111 _0069_
*112 _0070_
*113 _0071_
*114 _0072_
*115 _0073_
*116 _0074_
*117 _0075_
*118 _0076_
*119 _0077_
*120 _0078_
*121 _0079_
*122 _0080_
*123 _0081_
*124 _0082_
*125 _0083_
*126 _0084_
*127 _0085_
*128 _0086_
*129 _0087_
*130 _0088_
*131 _0089_
*132 _0090_
*133 _0091_
*134 _0092_
*135 _0093_
*136 _0094_
*137 _0095_
*138 _0096_
*139 _0097_
*140 _0098_
*141 _0099_
*142 _0100_
*143 _0101_
*144 _0102_
*145 _0103_
*146 _0104_
*147 _0105_
*148 _0106_
*149 _0107_
*150 _0108_
*151 _0109_
*152 _0110_
*153 _0111_
*154 _0112_
*155 _0113_
*156 _0114_
*157 _0115_
*158 _0116_
*159 _0117_
*160 _0118_
*161 _0119_
*162 _0120_
*163 _0121_
*164 _0122_
*165 _0123_
*166 _0124_
*167 _0125_
*168 _0126_
*169 _0127_
*170 _0128_
*171 _0129_
*172 _0130_
*173 _0131_
*174 _0132_
*175 _0133_
*176 _0134_
*177 _0135_
*178 _0136_
*179 _0137_
*180 _0138_
*181 _0139_
*182 _0140_
*183 _0141_
*184 _0142_
*185 _0143_
*186 _0144_
*187 _0145_
*188 _0146_
*189 _0147_
*190 _0148_
*191 _0149_
*192 _0150_
*193 _0151_
*194 _0152_
*195 _0153_
*196 _0154_
*197 _0155_
*198 _0156_
*199 _0157_
*200 _0158_
*201 _0159_
*202 _0160_
*203 _0161_
*204 _0162_
*205 _0163_
*206 _0164_
*207 _0165_
*208 _0166_
*209 _0167_
*210 _0168_
*211 _0169_
*212 _0170_
*213 _0171_
*214 _0172_
*215 _0173_
*216 _0174_
*217 _0175_
*218 _0176_
*219 _0177_
*220 _0178_
*221 _0179_
*222 _0180_
*223 _0181_
*224 _0182_
*225 _0183_
*226 _0184_
*227 _0185_
*228 _0186_
*229 _0187_
*230 _0188_
*231 _0189_
*232 _0190_
*233 _0191_
*234 _0192_
*235 _0193_
*236 _0194_
*237 _0195_
*238 _0196_
*239 _0197_
*240 _0198_
*241 _0199_
*242 _0200_
*243 _0201_
*244 _0202_
*245 _0203_
*246 _0204_
*247 _0205_
*248 _0206_
*249 _0207_
*250 _0208_
*251 _0209_
*252 _0210_
*253 _0211_
*254 _0212_
*255 _0213_
*256 _0214_
*257 _0215_
*258 _0216_
*259 _0217_
*260 _0218_
*261 _0219_
*262 _0220_
*263 _0221_
*264 _0222_
*265 _0223_
*266 _0224_
*267 _0225_
*268 _0226_
*269 _0227_
*270 _0228_
*271 _0229_
*272 _0230_
*273 _0231_
*274 _0232_
*275 _0233_
*276 _0234_
*277 _0235_
*278 _0236_
*279 _0237_
*280 _0238_
*281 _0239_
*282 _0240_
*283 _0241_
*284 _0242_
*285 _0243_
*286 _0244_
*287 _0245_
*288 _0246_
*289 _0247_
*290 _0248_
*291 _0249_
*292 _0250_
*293 _0251_
*294 _0252_
*295 _0253_
*296 _0254_
*297 _0255_
*298 _0256_
*299 _0257_
*300 _0258_
*301 _0259_
*302 _0260_
*303 _0261_
*304 _0262_
*305 _0263_
*306 _0264_
*307 _0265_
*308 _0266_
*309 _0267_
*310 _0268_
*311 _0269_
*312 _0270_
*313 _0271_
*314 _0272_
*315 _0273_
*316 _0274_
*317 _0275_
*318 _0276_
*319 _0277_
*320 _0278_
*321 _0279_
*322 _0280_
*323 _0281_
*324 _0282_
*325 _0283_
*326 _0284_
*327 _0285_
*328 _0286_
*329 _0287_
*330 _0288_
*331 _0289_
*332 _0290_
*333 _0291_
*334 _0292_
*335 _0293_
*336 _0294_
*337 _0295_
*338 _0296_
*339 _0297_
*340 _0298_
*341 _0299_
*342 _0300_
*343 _0301_
*344 _0302_
*345 _0303_
*346 _0304_
*347 _0305_
*348 _0306_
*349 _0307_
*350 _0308_
*351 _0309_
*352 _0310_
*353 _0311_
*354 _0312_
*355 _0313_
*356 _0314_
*357 _0315_
*358 _0316_
*359 _0317_
*360 _0318_
*361 _0319_
*362 _0320_
*363 _0321_
*364 _0322_
*365 _0323_
*366 _0324_
*367 _0325_
*368 _0326_
*369 _0327_
*370 _0328_
*371 _0329_
*372 _0330_
*373 _0331_
*374 _0332_
*375 _0333_
*376 _0334_
*377 _0335_
*378 _0336_
*379 _0337_
*380 _0338_
*381 _0339_
*382 _0340_
*383 _0341_
*384 _0342_
*385 _0343_
*386 _0344_
*387 _0345_
*388 _0346_
*389 _0347_
*390 _0348_
*391 _0349_
*392 _0350_
*393 _0351_
*394 _0352_
*395 _0353_
*396 _0354_
*397 _0355_
*398 _0356_
*399 _0357_
*400 _0358_
*401 _0359_
*402 _0360_
*403 _0361_
*404 _0362_
*405 _0363_
*406 _0364_
*407 _0365_
*408 _0366_
*409 _0367_
*410 _0368_
*411 _0369_
*412 _0370_
*413 _0371_
*414 _0372_
*415 _0373_
*416 _0374_
*417 _0375_
*418 _0376_
*419 _0377_
*420 _0378_
*421 _0379_
*422 _0380_
*423 _0381_
*424 _0382_
*425 _0383_
*426 _0384_
*427 _0385_
*428 _0386_
*429 _0387_
*430 _0388_
*431 _0389_
*432 _0390_
*433 _0391_
*434 _0392_
*435 _0393_
*436 _0394_
*437 _0395_
*438 _0396_
*439 _0397_
*440 _0398_
*441 _0399_
*442 _0400_
*443 _0401_
*444 _0402_
*445 _0403_
*446 _0404_
*447 _0405_
*448 _0406_
*449 _0407_
*450 _0408_
*451 _0409_
*452 _0410_
*453 _0411_
*454 _0412_
*455 _0413_
*456 _0414_
*457 _0415_
*458 _0416_
*459 _0417_
*460 _0418_
*461 _0419_
*462 _0420_
*463 _0421_
*464 _0422_
*465 _0423_
*466 _0424_
*467 _0425_
*468 _0426_
*469 _0427_
*470 _0428_
*471 _0429_
*472 _0430_
*473 _0431_
*474 _0432_
*475 _0433_
*476 _0434_
*477 _0435_
*478 _0436_
*479 _0437_
*480 _0438_
*481 _0439_
*482 _0440_
*483 _0441_
*484 _0442_
*485 _0443_
*486 _0444_
*487 _0445_
*488 _0446_
*489 _0447_
*490 _0448_
*491 _0449_
*492 _0450_
*493 _0451_
*494 _0452_
*495 _0453_
*496 _0454_
*497 _0455_
*498 _0456_
*499 _0457_
*500 _0458_
*501 _0459_
*502 _0460_
*503 _0461_
*504 _0462_
*505 _0463_
*506 _0464_
*507 _0465_
*508 _0466_
*509 clknet_0_wb_clk_i
*510 clknet_3_0__leaf_wb_clk_i
*511 clknet_3_1__leaf_wb_clk_i
*512 clknet_3_2__leaf_wb_clk_i
*513 clknet_3_3__leaf_wb_clk_i
*514 clknet_3_4__leaf_wb_clk_i
*515 clknet_3_5__leaf_wb_clk_i
*516 clknet_3_6__leaf_wb_clk_i
*517 clknet_3_7__leaf_wb_clk_i
*518 net1
*519 net10
*520 net100
*521 net101
*522 net102
*523 net103
*524 net104
*525 net105
*526 net106
*527 net107
*528 net108
*529 net109
*530 net11
*531 net110
*532 net111
*533 net112
*534 net113
*535 net114
*536 net115
*537 net116
*538 net117
*539 net118
*540 net119
*541 net12
*542 net120
*543 net121
*544 net122
*545 net123
*546 net124
*547 net125
*548 net126
*549 net127
*550 net128
*551 net129
*552 net13
*553 net130
*554 net131
*555 net132
*556 net133
*557 net134
*558 net135
*559 net136
*560 net137
*561 net138
*562 net139
*563 net14
*564 net140
*565 net141
*566 net142
*567 net143
*568 net144
*569 net145
*570 net146
*571 net147
*572 net148
*573 net149
*574 net15
*575 net150
*576 net151
*577 net152
*578 net153
*579 net154
*580 net155
*581 net156
*582 net157
*583 net158
*584 net159
*585 net16
*586 net160
*587 net161
*588 net162
*589 net163
*590 net164
*591 net165
*592 net166
*593 net167
*594 net168
*595 net169
*596 net17
*597 net170
*598 net171
*599 net172
*600 net173
*601 net174
*602 net175
*603 net176
*604 net177
*605 net178
*606 net179
*607 net18
*608 net180
*609 net181
*610 net182
*611 net183
*612 net184
*613 net185
*614 net186
*615 net187
*616 net188
*617 net189
*618 net19
*619 net190
*620 net191
*621 net192
*622 net193
*623 net194
*624 net195
*625 net2
*626 net20
*627 net21
*628 net22
*629 net23
*630 net24
*631 net25
*632 net26
*633 net27
*634 net28
*635 net29
*636 net3
*637 net30
*638 net31
*639 net32
*640 net33
*641 net4
*642 net45
*643 net46
*644 net47
*645 net48
*646 net49
*647 net5
*648 net50
*649 net51
*650 net52
*651 net53
*652 net54
*653 net55
*654 net56
*655 net57
*656 net58
*657 net59
*658 net6
*659 net60
*660 net61
*661 net62
*662 net63
*663 net64
*664 net65
*665 net66
*666 net67
*667 net68
*668 net69
*669 net7
*670 net70
*671 net71
*672 net72
*673 net73
*674 net74
*675 net75
*676 net76
*677 net77
*678 net78
*679 net79
*680 net8
*681 net80
*682 net81
*683 net82
*684 net83
*685 net84
*686 net85
*687 net86
*688 net87
*689 net88
*690 net89
*691 net9
*692 net90
*693 net91
*694 net92
*695 net93
*696 net94
*697 net95
*698 net96
*699 net97
*700 net98
*701 net99
*702 scoreboard_inst\.counter_500Hz\[0\]
*703 scoreboard_inst\.counter_500Hz\[10\]
*704 scoreboard_inst\.counter_500Hz\[11\]
*705 scoreboard_inst\.counter_500Hz\[12\]
*706 scoreboard_inst\.counter_500Hz\[13\]
*707 scoreboard_inst\.counter_500Hz\[14\]
*708 scoreboard_inst\.counter_500Hz\[1\]
*709 scoreboard_inst\.counter_500Hz\[2\]
*710 scoreboard_inst\.counter_500Hz\[3\]
*711 scoreboard_inst\.counter_500Hz\[4\]
*712 scoreboard_inst\.counter_500Hz\[5\]
*713 scoreboard_inst\.counter_500Hz\[6\]
*714 scoreboard_inst\.counter_500Hz\[7\]
*715 scoreboard_inst\.counter_500Hz\[8\]
*716 scoreboard_inst\.counter_500Hz\[9\]
*717 scoreboard_inst\.current_digit\[0\]
*718 scoreboard_inst\.current_digit\[1\]
*719 scoreboard_inst\.score_team1\[0\]
*720 scoreboard_inst\.score_team1\[1\]
*721 scoreboard_inst\.score_team1\[2\]
*722 scoreboard_inst\.score_team1\[3\]
*723 scoreboard_inst\.score_team1\[4\]
*724 scoreboard_inst\.score_team1\[5\]
*725 scoreboard_inst\.score_team1\[6\]
*726 scoreboard_inst\.score_team1\[7\]
*727 scoreboard_inst\.score_team2\[0\]
*728 scoreboard_inst\.score_team2\[1\]
*729 scoreboard_inst\.score_team2\[2\]
*730 scoreboard_inst\.score_team2\[3\]
*731 scoreboard_inst\.score_team2\[4\]
*732 scoreboard_inst\.score_team2\[5\]
*733 scoreboard_inst\.score_team2\[6\]
*734 scoreboard_inst\.score_team2\[7\]
*735 scoreboard_inst\.team1_dec_prev
*736 scoreboard_inst\.team1_inc_prev
*737 scoreboard_inst\.team1_ones\[0\]
*738 scoreboard_inst\.team1_ones\[1\]
*739 scoreboard_inst\.team1_ones\[2\]
*740 scoreboard_inst\.team1_ones\[3\]
*741 scoreboard_inst\.team1_ones\[4\]
*742 scoreboard_inst\.team1_ones\[5\]
*743 scoreboard_inst\.team1_ones\[6\]
*744 scoreboard_inst\.team1_ones\[7\]
*745 scoreboard_inst\.team1_tens\[0\]
*746 scoreboard_inst\.team1_tens\[1\]
*747 scoreboard_inst\.team1_tens\[2\]
*748 scoreboard_inst\.team1_tens\[3\]
*749 scoreboard_inst\.team1_tens\[4\]
*750 scoreboard_inst\.team2_dec_prev
*751 scoreboard_inst\.team2_inc_prev
*752 scoreboard_inst\.team2_ones\[0\]
*753 scoreboard_inst\.team2_ones\[1\]
*754 scoreboard_inst\.team2_ones\[2\]
*755 scoreboard_inst\.team2_ones\[3\]
*756 scoreboard_inst\.team2_ones\[4\]
*757 scoreboard_inst\.team2_ones\[5\]
*758 scoreboard_inst\.team2_ones\[6\]
*759 scoreboard_inst\.team2_ones\[7\]
*760 scoreboard_inst\.team2_tens\[0\]
*761 scoreboard_inst\.team2_tens\[1\]
*762 scoreboard_inst\.team2_tens\[2\]
*763 scoreboard_inst\.team2_tens\[3\]
*764 scoreboard_inst\.team2_tens\[4\]
*765 ANTENNA__0486__B
*766 ANTENNA__0489__B
*767 ANTENNA__0499__A2
*768 ANTENNA__0537__B
*769 ANTENNA__0540__B
*770 ANTENNA__0550__A2
*771 ANTENNA__0890__A
*772 ANTENNA__0891__A
*773 ANTENNA__0892__A
*774 ANTENNA__0893__A
*775 ANTENNA__0966__D
*776 ANTENNA__0967__D
*777 ANTENNA__1019__A
*778 ANTENNA__1020__A
*779 ANTENNA__1021__A
*780 ANTENNA__1022__A
*781 ANTENNA__1023__A
*782 ANTENNA__1024__A
*783 ANTENNA__1025__A
*784 ANTENNA__1026__A
*785 ANTENNA__1027__A
*786 ANTENNA__1028__A
*787 ANTENNA__1029__A
*788 ANTENNA_clkbuf_3_0__f_wb_clk_i_A
*789 ANTENNA_clkbuf_3_1__f_wb_clk_i_A
*790 ANTENNA_clkbuf_3_2__f_wb_clk_i_A
*791 ANTENNA_clkbuf_3_3__f_wb_clk_i_A
*792 ANTENNA_clkbuf_3_4__f_wb_clk_i_A
*793 ANTENNA_clkbuf_3_5__f_wb_clk_i_A
*794 ANTENNA_clkbuf_3_6__f_wb_clk_i_A
*795 ANTENNA_clkbuf_3_7__f_wb_clk_i_A
*796 ANTENNA_fanout28_A
*797 ANTENNA_fanout29_A
*798 ANTENNA_fanout31_A
*799 ANTENNA_fanout32_A
*800 ANTENNA_output10_A
*801 ANTENNA_output11_A
*802 ANTENNA_output12_A
*803 ANTENNA_output13_A
*804 ANTENNA_output14_A
*805 ANTENNA_output15_A
*806 ANTENNA_output16_A
*807 ANTENNA_output6_A
*808 ANTENNA_output7_A
*809 ANTENNA_output8_A
*810 ANTENNA_output9_A
*811 FILLER_0_0_100
*812 FILLER_0_0_113
*813 FILLER_0_0_130
*814 FILLER_0_0_138
*815 FILLER_0_0_141
*816 FILLER_0_0_147
*817 FILLER_0_0_15
*818 FILLER_0_0_151
*819 FILLER_0_0_156
*820 FILLER_0_0_188
*821 FILLER_0_0_206
*822 FILLER_0_0_225
*823 FILLER_0_0_244
*824 FILLER_0_0_253
*825 FILLER_0_0_258
*826 FILLER_0_0_27
*827 FILLER_0_0_281
*828 FILLER_0_0_29
*829 FILLER_0_0_293
*830 FILLER_0_0_3
*831 FILLER_0_0_305
*832 FILLER_0_0_309
*833 FILLER_0_0_313
*834 FILLER_0_0_330
*835 FILLER_0_0_337
*836 FILLER_0_0_349
*837 FILLER_0_0_361
*838 FILLER_0_0_381
*839 FILLER_0_0_389
*840 FILLER_0_0_393
*841 FILLER_0_0_405
*842 FILLER_0_0_41
*843 FILLER_0_0_417
*844 FILLER_0_0_437
*845 FILLER_0_0_445
*846 FILLER_0_0_449
*847 FILLER_0_0_457
*848 FILLER_0_0_477
*849 FILLER_0_0_489
*850 FILLER_0_0_501
*851 FILLER_0_0_505
*852 FILLER_0_0_513
*853 FILLER_0_0_53
*854 FILLER_0_0_530
*855 FILLER_0_0_533
*856 FILLER_0_0_545
*857 FILLER_0_0_557
*858 FILLER_0_0_561
*859 FILLER_0_0_57
*860 FILLER_0_0_580
*861 FILLER_0_0_589
*862 FILLER_0_0_597
*863 FILLER_0_0_617
*864 FILLER_0_0_621
*865 FILLER_0_0_63
*866 FILLER_0_0_67
*867 FILLER_0_0_79
*868 FILLER_0_0_83
*869 FILLER_0_0_85
*870 FILLER_0_0_96
*871 FILLER_0_100_109
*872 FILLER_0_100_121
*873 FILLER_0_100_133
*874 FILLER_0_100_139
*875 FILLER_0_100_141
*876 FILLER_0_100_15
*877 FILLER_0_100_153
*878 FILLER_0_100_165
*879 FILLER_0_100_177
*880 FILLER_0_100_189
*881 FILLER_0_100_195
*882 FILLER_0_100_197
*883 FILLER_0_100_209
*884 FILLER_0_100_221
*885 FILLER_0_100_233
*886 FILLER_0_100_245
*887 FILLER_0_100_251
*888 FILLER_0_100_253
*889 FILLER_0_100_265
*890 FILLER_0_100_27
*891 FILLER_0_100_277
*892 FILLER_0_100_289
*893 FILLER_0_100_29
*894 FILLER_0_100_3
*895 FILLER_0_100_301
*896 FILLER_0_100_307
*897 FILLER_0_100_309
*898 FILLER_0_100_321
*899 FILLER_0_100_333
*900 FILLER_0_100_345
*901 FILLER_0_100_357
*902 FILLER_0_100_363
*903 FILLER_0_100_365
*904 FILLER_0_100_377
*905 FILLER_0_100_389
*906 FILLER_0_100_401
*907 FILLER_0_100_41
*908 FILLER_0_100_413
*909 FILLER_0_100_419
*910 FILLER_0_100_421
*911 FILLER_0_100_433
*912 FILLER_0_100_445
*913 FILLER_0_100_457
*914 FILLER_0_100_469
*915 FILLER_0_100_475
*916 FILLER_0_100_477
*917 FILLER_0_100_489
*918 FILLER_0_100_501
*919 FILLER_0_100_513
*920 FILLER_0_100_525
*921 FILLER_0_100_53
*922 FILLER_0_100_531
*923 FILLER_0_100_533
*924 FILLER_0_100_545
*925 FILLER_0_100_557
*926 FILLER_0_100_569
*927 FILLER_0_100_581
*928 FILLER_0_100_587
*929 FILLER_0_100_589
*930 FILLER_0_100_601
*931 FILLER_0_100_65
*932 FILLER_0_100_77
*933 FILLER_0_100_83
*934 FILLER_0_100_85
*935 FILLER_0_100_97
*936 FILLER_0_101_109
*937 FILLER_0_101_113
*938 FILLER_0_101_125
*939 FILLER_0_101_137
*940 FILLER_0_101_141
*941 FILLER_0_101_15
*942 FILLER_0_101_153
*943 FILLER_0_101_165
*944 FILLER_0_101_169
*945 FILLER_0_101_181
*946 FILLER_0_101_193
*947 FILLER_0_101_197
*948 FILLER_0_101_209
*949 FILLER_0_101_221
*950 FILLER_0_101_225
*951 FILLER_0_101_237
*952 FILLER_0_101_249
*953 FILLER_0_101_253
*954 FILLER_0_101_265
*955 FILLER_0_101_27
*956 FILLER_0_101_277
*957 FILLER_0_101_281
*958 FILLER_0_101_29
*959 FILLER_0_101_293
*960 FILLER_0_101_3
*961 FILLER_0_101_305
*962 FILLER_0_101_309
*963 FILLER_0_101_321
*964 FILLER_0_101_333
*965 FILLER_0_101_337
*966 FILLER_0_101_349
*967 FILLER_0_101_361
*968 FILLER_0_101_365
*969 FILLER_0_101_377
*970 FILLER_0_101_389
*971 FILLER_0_101_393
*972 FILLER_0_101_405
*973 FILLER_0_101_41
*974 FILLER_0_101_417
*975 FILLER_0_101_421
*976 FILLER_0_101_433
*977 FILLER_0_101_445
*978 FILLER_0_101_449
*979 FILLER_0_101_461
*980 FILLER_0_101_473
*981 FILLER_0_101_477
*982 FILLER_0_101_489
*983 FILLER_0_101_501
*984 FILLER_0_101_505
*985 FILLER_0_101_517
*986 FILLER_0_101_529
*987 FILLER_0_101_53
*988 FILLER_0_101_533
*989 FILLER_0_101_545
*990 FILLER_0_101_557
*991 FILLER_0_101_561
*992 FILLER_0_101_57
*993 FILLER_0_101_573
*994 FILLER_0_101_585
*995 FILLER_0_101_589
*996 FILLER_0_101_601
*997 FILLER_0_101_613
*998 FILLER_0_101_617
*999 FILLER_0_101_69
*1000 FILLER_0_101_81
*1001 FILLER_0_101_85
*1002 FILLER_0_101_97
*1003 FILLER_0_10_100
*1004 FILLER_0_10_127
*1005 FILLER_0_10_131
*1006 FILLER_0_10_139
*1007 FILLER_0_10_157
*1008 FILLER_0_10_170
*1009 FILLER_0_10_18
*1010 FILLER_0_10_192
*1011 FILLER_0_10_202
*1012 FILLER_0_10_247
*1013 FILLER_0_10_251
*1014 FILLER_0_10_26
*1015 FILLER_0_10_29
*1016 FILLER_0_10_303
*1017 FILLER_0_10_307
*1018 FILLER_0_10_330
*1019 FILLER_0_10_342
*1020 FILLER_0_10_354
*1021 FILLER_0_10_362
*1022 FILLER_0_10_365
*1023 FILLER_0_10_377
*1024 FILLER_0_10_389
*1025 FILLER_0_10_401
*1026 FILLER_0_10_41
*1027 FILLER_0_10_413
*1028 FILLER_0_10_419
*1029 FILLER_0_10_421
*1030 FILLER_0_10_433
*1031 FILLER_0_10_445
*1032 FILLER_0_10_457
*1033 FILLER_0_10_469
*1034 FILLER_0_10_475
*1035 FILLER_0_10_477
*1036 FILLER_0_10_489
*1037 FILLER_0_10_50
*1038 FILLER_0_10_501
*1039 FILLER_0_10_513
*1040 FILLER_0_10_525
*1041 FILLER_0_10_531
*1042 FILLER_0_10_533
*1043 FILLER_0_10_545
*1044 FILLER_0_10_557
*1045 FILLER_0_10_569
*1046 FILLER_0_10_58
*1047 FILLER_0_10_581
*1048 FILLER_0_10_587
*1049 FILLER_0_10_589
*1050 FILLER_0_10_6
*1051 FILLER_0_10_601
*1052 FILLER_0_10_613
*1053 FILLER_0_10_80
*1054 FILLER_0_10_92
*1055 FILLER_0_11_103
*1056 FILLER_0_11_111
*1057 FILLER_0_11_113
*1058 FILLER_0_11_119
*1059 FILLER_0_11_131
*1060 FILLER_0_11_15
*1061 FILLER_0_11_159
*1062 FILLER_0_11_167
*1063 FILLER_0_11_169
*1064 FILLER_0_11_179
*1065 FILLER_0_11_200
*1066 FILLER_0_11_218
*1067 FILLER_0_11_225
*1068 FILLER_0_11_235
*1069 FILLER_0_11_239
*1070 FILLER_0_11_27
*1071 FILLER_0_11_276
*1072 FILLER_0_11_3
*1073 FILLER_0_11_310
*1074 FILLER_0_11_319
*1075 FILLER_0_11_327
*1076 FILLER_0_11_332
*1077 FILLER_0_11_337
*1078 FILLER_0_11_349
*1079 FILLER_0_11_35
*1080 FILLER_0_11_361
*1081 FILLER_0_11_373
*1082 FILLER_0_11_385
*1083 FILLER_0_11_391
*1084 FILLER_0_11_393
*1085 FILLER_0_11_405
*1086 FILLER_0_11_417
*1087 FILLER_0_11_429
*1088 FILLER_0_11_441
*1089 FILLER_0_11_447
*1090 FILLER_0_11_449
*1091 FILLER_0_11_461
*1092 FILLER_0_11_473
*1093 FILLER_0_11_485
*1094 FILLER_0_11_497
*1095 FILLER_0_11_503
*1096 FILLER_0_11_505
*1097 FILLER_0_11_517
*1098 FILLER_0_11_529
*1099 FILLER_0_11_541
*1100 FILLER_0_11_553
*1101 FILLER_0_11_559
*1102 FILLER_0_11_561
*1103 FILLER_0_11_573
*1104 FILLER_0_11_585
*1105 FILLER_0_11_597
*1106 FILLER_0_11_60
*1107 FILLER_0_11_609
*1108 FILLER_0_11_615
*1109 FILLER_0_11_617
*1110 FILLER_0_11_91
*1111 FILLER_0_11_99
*1112 FILLER_0_12_127
*1113 FILLER_0_12_141
*1114 FILLER_0_12_15
*1115 FILLER_0_12_151
*1116 FILLER_0_12_186
*1117 FILLER_0_12_194
*1118 FILLER_0_12_197
*1119 FILLER_0_12_209
*1120 FILLER_0_12_221
*1121 FILLER_0_12_239
*1122 FILLER_0_12_251
*1123 FILLER_0_12_253
*1124 FILLER_0_12_261
*1125 FILLER_0_12_27
*1126 FILLER_0_12_29
*1127 FILLER_0_12_294
*1128 FILLER_0_12_3
*1129 FILLER_0_12_301
*1130 FILLER_0_12_306
*1131 FILLER_0_12_309
*1132 FILLER_0_12_317
*1133 FILLER_0_12_340
*1134 FILLER_0_12_352
*1135 FILLER_0_12_365
*1136 FILLER_0_12_377
*1137 FILLER_0_12_389
*1138 FILLER_0_12_401
*1139 FILLER_0_12_41
*1140 FILLER_0_12_413
*1141 FILLER_0_12_419
*1142 FILLER_0_12_421
*1143 FILLER_0_12_433
*1144 FILLER_0_12_445
*1145 FILLER_0_12_457
*1146 FILLER_0_12_469
*1147 FILLER_0_12_475
*1148 FILLER_0_12_477
*1149 FILLER_0_12_489
*1150 FILLER_0_12_501
*1151 FILLER_0_12_513
*1152 FILLER_0_12_525
*1153 FILLER_0_12_53
*1154 FILLER_0_12_531
*1155 FILLER_0_12_533
*1156 FILLER_0_12_545
*1157 FILLER_0_12_557
*1158 FILLER_0_12_569
*1159 FILLER_0_12_581
*1160 FILLER_0_12_587
*1161 FILLER_0_12_589
*1162 FILLER_0_12_601
*1163 FILLER_0_12_613
*1164 FILLER_0_12_65
*1165 FILLER_0_12_77
*1166 FILLER_0_12_83
*1167 FILLER_0_12_90
*1168 FILLER_0_12_97
*1169 FILLER_0_13_105
*1170 FILLER_0_13_111
*1171 FILLER_0_13_15
*1172 FILLER_0_13_152
*1173 FILLER_0_13_164
*1174 FILLER_0_13_169
*1175 FILLER_0_13_181
*1176 FILLER_0_13_185
*1177 FILLER_0_13_202
*1178 FILLER_0_13_220
*1179 FILLER_0_13_225
*1180 FILLER_0_13_237
*1181 FILLER_0_13_257
*1182 FILLER_0_13_265
*1183 FILLER_0_13_27
*1184 FILLER_0_13_278
*1185 FILLER_0_13_3
*1186 FILLER_0_13_335
*1187 FILLER_0_13_337
*1188 FILLER_0_13_349
*1189 FILLER_0_13_361
*1190 FILLER_0_13_373
*1191 FILLER_0_13_385
*1192 FILLER_0_13_39
*1193 FILLER_0_13_391
*1194 FILLER_0_13_393
*1195 FILLER_0_13_405
*1196 FILLER_0_13_417
*1197 FILLER_0_13_429
*1198 FILLER_0_13_441
*1199 FILLER_0_13_447
*1200 FILLER_0_13_449
*1201 FILLER_0_13_461
*1202 FILLER_0_13_473
*1203 FILLER_0_13_485
*1204 FILLER_0_13_497
*1205 FILLER_0_13_503
*1206 FILLER_0_13_505
*1207 FILLER_0_13_51
*1208 FILLER_0_13_517
*1209 FILLER_0_13_529
*1210 FILLER_0_13_541
*1211 FILLER_0_13_55
*1212 FILLER_0_13_553
*1213 FILLER_0_13_559
*1214 FILLER_0_13_561
*1215 FILLER_0_13_573
*1216 FILLER_0_13_585
*1217 FILLER_0_13_597
*1218 FILLER_0_13_60
*1219 FILLER_0_13_609
*1220 FILLER_0_13_615
*1221 FILLER_0_13_617
*1222 FILLER_0_13_80
*1223 FILLER_0_14_105
*1224 FILLER_0_14_136
*1225 FILLER_0_14_141
*1226 FILLER_0_14_145
*1227 FILLER_0_14_15
*1228 FILLER_0_14_162
*1229 FILLER_0_14_174
*1230 FILLER_0_14_186
*1231 FILLER_0_14_194
*1232 FILLER_0_14_226
*1233 FILLER_0_14_241
*1234 FILLER_0_14_249
*1235 FILLER_0_14_264
*1236 FILLER_0_14_27
*1237 FILLER_0_14_273
*1238 FILLER_0_14_29
*1239 FILLER_0_14_290
*1240 FILLER_0_14_3
*1241 FILLER_0_14_307
*1242 FILLER_0_14_309
*1243 FILLER_0_14_331
*1244 FILLER_0_14_343
*1245 FILLER_0_14_355
*1246 FILLER_0_14_363
*1247 FILLER_0_14_365
*1248 FILLER_0_14_377
*1249 FILLER_0_14_389
*1250 FILLER_0_14_401
*1251 FILLER_0_14_41
*1252 FILLER_0_14_413
*1253 FILLER_0_14_419
*1254 FILLER_0_14_421
*1255 FILLER_0_14_433
*1256 FILLER_0_14_445
*1257 FILLER_0_14_457
*1258 FILLER_0_14_469
*1259 FILLER_0_14_475
*1260 FILLER_0_14_477
*1261 FILLER_0_14_489
*1262 FILLER_0_14_501
*1263 FILLER_0_14_513
*1264 FILLER_0_14_525
*1265 FILLER_0_14_531
*1266 FILLER_0_14_533
*1267 FILLER_0_14_545
*1268 FILLER_0_14_557
*1269 FILLER_0_14_569
*1270 FILLER_0_14_581
*1271 FILLER_0_14_587
*1272 FILLER_0_14_589
*1273 FILLER_0_14_601
*1274 FILLER_0_14_68
*1275 FILLER_0_14_76
*1276 FILLER_0_14_85
*1277 FILLER_0_14_89
*1278 FILLER_0_14_93
*1279 FILLER_0_15_110
*1280 FILLER_0_15_131
*1281 FILLER_0_15_142
*1282 FILLER_0_15_15
*1283 FILLER_0_15_150
*1284 FILLER_0_15_169
*1285 FILLER_0_15_221
*1286 FILLER_0_15_225
*1287 FILLER_0_15_239
*1288 FILLER_0_15_251
*1289 FILLER_0_15_266
*1290 FILLER_0_15_27
*1291 FILLER_0_15_272
*1292 FILLER_0_15_279
*1293 FILLER_0_15_286
*1294 FILLER_0_15_3
*1295 FILLER_0_15_316
*1296 FILLER_0_15_323
*1297 FILLER_0_15_335
*1298 FILLER_0_15_337
*1299 FILLER_0_15_349
*1300 FILLER_0_15_361
*1301 FILLER_0_15_373
*1302 FILLER_0_15_385
*1303 FILLER_0_15_39
*1304 FILLER_0_15_391
*1305 FILLER_0_15_393
*1306 FILLER_0_15_405
*1307 FILLER_0_15_417
*1308 FILLER_0_15_429
*1309 FILLER_0_15_441
*1310 FILLER_0_15_447
*1311 FILLER_0_15_449
*1312 FILLER_0_15_461
*1313 FILLER_0_15_473
*1314 FILLER_0_15_485
*1315 FILLER_0_15_497
*1316 FILLER_0_15_503
*1317 FILLER_0_15_505
*1318 FILLER_0_15_51
*1319 FILLER_0_15_517
*1320 FILLER_0_15_529
*1321 FILLER_0_15_541
*1322 FILLER_0_15_55
*1323 FILLER_0_15_553
*1324 FILLER_0_15_559
*1325 FILLER_0_15_561
*1326 FILLER_0_15_57
*1327 FILLER_0_15_573
*1328 FILLER_0_15_585
*1329 FILLER_0_15_597
*1330 FILLER_0_15_609
*1331 FILLER_0_15_615
*1332 FILLER_0_15_617
*1333 FILLER_0_15_69
*1334 FILLER_0_15_85
*1335 FILLER_0_15_94
*1336 FILLER_0_16_121
*1337 FILLER_0_16_141
*1338 FILLER_0_16_15
*1339 FILLER_0_16_159
*1340 FILLER_0_16_171
*1341 FILLER_0_16_183
*1342 FILLER_0_16_195
*1343 FILLER_0_16_225
*1344 FILLER_0_16_238
*1345 FILLER_0_16_244
*1346 FILLER_0_16_251
*1347 FILLER_0_16_259
*1348 FILLER_0_16_263
*1349 FILLER_0_16_27
*1350 FILLER_0_16_29
*1351 FILLER_0_16_291
*1352 FILLER_0_16_3
*1353 FILLER_0_16_300
*1354 FILLER_0_16_309
*1355 FILLER_0_16_321
*1356 FILLER_0_16_333
*1357 FILLER_0_16_345
*1358 FILLER_0_16_357
*1359 FILLER_0_16_363
*1360 FILLER_0_16_365
*1361 FILLER_0_16_377
*1362 FILLER_0_16_389
*1363 FILLER_0_16_401
*1364 FILLER_0_16_41
*1365 FILLER_0_16_413
*1366 FILLER_0_16_419
*1367 FILLER_0_16_421
*1368 FILLER_0_16_433
*1369 FILLER_0_16_445
*1370 FILLER_0_16_457
*1371 FILLER_0_16_469
*1372 FILLER_0_16_475
*1373 FILLER_0_16_477
*1374 FILLER_0_16_489
*1375 FILLER_0_16_501
*1376 FILLER_0_16_513
*1377 FILLER_0_16_525
*1378 FILLER_0_16_53
*1379 FILLER_0_16_531
*1380 FILLER_0_16_533
*1381 FILLER_0_16_545
*1382 FILLER_0_16_557
*1383 FILLER_0_16_569
*1384 FILLER_0_16_581
*1385 FILLER_0_16_587
*1386 FILLER_0_16_589
*1387 FILLER_0_16_601
*1388 FILLER_0_16_613
*1389 FILLER_0_16_65
*1390 FILLER_0_16_76
*1391 FILLER_0_16_85
*1392 FILLER_0_16_97
*1393 FILLER_0_17_108
*1394 FILLER_0_17_113
*1395 FILLER_0_17_117
*1396 FILLER_0_17_124
*1397 FILLER_0_17_132
*1398 FILLER_0_17_144
*1399 FILLER_0_17_15
*1400 FILLER_0_17_164
*1401 FILLER_0_17_169
*1402 FILLER_0_17_186
*1403 FILLER_0_17_230
*1404 FILLER_0_17_242
*1405 FILLER_0_17_254
*1406 FILLER_0_17_260
*1407 FILLER_0_17_27
*1408 FILLER_0_17_273
*1409 FILLER_0_17_279
*1410 FILLER_0_17_281
*1411 FILLER_0_17_286
*1412 FILLER_0_17_298
*1413 FILLER_0_17_3
*1414 FILLER_0_17_303
*1415 FILLER_0_17_307
*1416 FILLER_0_17_320
*1417 FILLER_0_17_335
*1418 FILLER_0_17_337
*1419 FILLER_0_17_349
*1420 FILLER_0_17_361
*1421 FILLER_0_17_373
*1422 FILLER_0_17_385
*1423 FILLER_0_17_39
*1424 FILLER_0_17_391
*1425 FILLER_0_17_393
*1426 FILLER_0_17_405
*1427 FILLER_0_17_417
*1428 FILLER_0_17_429
*1429 FILLER_0_17_441
*1430 FILLER_0_17_447
*1431 FILLER_0_17_449
*1432 FILLER_0_17_461
*1433 FILLER_0_17_473
*1434 FILLER_0_17_485
*1435 FILLER_0_17_497
*1436 FILLER_0_17_503
*1437 FILLER_0_17_505
*1438 FILLER_0_17_51
*1439 FILLER_0_17_517
*1440 FILLER_0_17_529
*1441 FILLER_0_17_541
*1442 FILLER_0_17_55
*1443 FILLER_0_17_553
*1444 FILLER_0_17_559
*1445 FILLER_0_17_561
*1446 FILLER_0_17_57
*1447 FILLER_0_17_573
*1448 FILLER_0_17_585
*1449 FILLER_0_17_597
*1450 FILLER_0_17_609
*1451 FILLER_0_17_615
*1452 FILLER_0_17_617
*1453 FILLER_0_17_69
*1454 FILLER_0_17_77
*1455 FILLER_0_17_86
*1456 FILLER_0_17_90
*1457 FILLER_0_17_96
*1458 FILLER_0_18_120
*1459 FILLER_0_18_139
*1460 FILLER_0_18_149
*1461 FILLER_0_18_15
*1462 FILLER_0_18_161
*1463 FILLER_0_18_197
*1464 FILLER_0_18_205
*1465 FILLER_0_18_211
*1466 FILLER_0_18_217
*1467 FILLER_0_18_27
*1468 FILLER_0_18_277
*1469 FILLER_0_18_285
*1470 FILLER_0_18_29
*1471 FILLER_0_18_3
*1472 FILLER_0_18_343
*1473 FILLER_0_18_355
*1474 FILLER_0_18_363
*1475 FILLER_0_18_365
*1476 FILLER_0_18_377
*1477 FILLER_0_18_389
*1478 FILLER_0_18_401
*1479 FILLER_0_18_41
*1480 FILLER_0_18_413
*1481 FILLER_0_18_419
*1482 FILLER_0_18_421
*1483 FILLER_0_18_433
*1484 FILLER_0_18_445
*1485 FILLER_0_18_457
*1486 FILLER_0_18_469
*1487 FILLER_0_18_475
*1488 FILLER_0_18_477
*1489 FILLER_0_18_489
*1490 FILLER_0_18_501
*1491 FILLER_0_18_513
*1492 FILLER_0_18_525
*1493 FILLER_0_18_53
*1494 FILLER_0_18_531
*1495 FILLER_0_18_533
*1496 FILLER_0_18_545
*1497 FILLER_0_18_557
*1498 FILLER_0_18_569
*1499 FILLER_0_18_581
*1500 FILLER_0_18_587
*1501 FILLER_0_18_589
*1502 FILLER_0_18_601
*1503 FILLER_0_18_613
*1504 FILLER_0_18_64
*1505 FILLER_0_18_92
*1506 FILLER_0_19_109
*1507 FILLER_0_19_113
*1508 FILLER_0_19_15
*1509 FILLER_0_19_158
*1510 FILLER_0_19_164
*1511 FILLER_0_19_169
*1512 FILLER_0_19_178
*1513 FILLER_0_19_183
*1514 FILLER_0_19_195
*1515 FILLER_0_19_199
*1516 FILLER_0_19_208
*1517 FILLER_0_19_212
*1518 FILLER_0_19_221
*1519 FILLER_0_19_241
*1520 FILLER_0_19_253
*1521 FILLER_0_19_27
*1522 FILLER_0_19_284
*1523 FILLER_0_19_295
*1524 FILLER_0_19_3
*1525 FILLER_0_19_303
*1526 FILLER_0_19_317
*1527 FILLER_0_19_329
*1528 FILLER_0_19_335
*1529 FILLER_0_19_337
*1530 FILLER_0_19_349
*1531 FILLER_0_19_361
*1532 FILLER_0_19_373
*1533 FILLER_0_19_385
*1534 FILLER_0_19_39
*1535 FILLER_0_19_391
*1536 FILLER_0_19_393
*1537 FILLER_0_19_405
*1538 FILLER_0_19_417
*1539 FILLER_0_19_429
*1540 FILLER_0_19_441
*1541 FILLER_0_19_447
*1542 FILLER_0_19_449
*1543 FILLER_0_19_461
*1544 FILLER_0_19_473
*1545 FILLER_0_19_485
*1546 FILLER_0_19_497
*1547 FILLER_0_19_503
*1548 FILLER_0_19_505
*1549 FILLER_0_19_51
*1550 FILLER_0_19_517
*1551 FILLER_0_19_529
*1552 FILLER_0_19_541
*1553 FILLER_0_19_553
*1554 FILLER_0_19_559
*1555 FILLER_0_19_561
*1556 FILLER_0_19_573
*1557 FILLER_0_19_585
*1558 FILLER_0_19_597
*1559 FILLER_0_19_609
*1560 FILLER_0_19_615
*1561 FILLER_0_19_617
*1562 FILLER_0_19_621
*1563 FILLER_0_19_80
*1564 FILLER_0_19_86
*1565 FILLER_0_19_98
*1566 FILLER_0_1_15
*1567 FILLER_0_1_157
*1568 FILLER_0_1_167
*1569 FILLER_0_1_169
*1570 FILLER_0_1_202
*1571 FILLER_0_1_221
*1572 FILLER_0_1_232
*1573 FILLER_0_1_252
*1574 FILLER_0_1_27
*1575 FILLER_0_1_272
*1576 FILLER_0_1_292
*1577 FILLER_0_1_3
*1578 FILLER_0_1_304
*1579 FILLER_0_1_308
*1580 FILLER_0_1_314
*1581 FILLER_0_1_326
*1582 FILLER_0_1_334
*1583 FILLER_0_1_337
*1584 FILLER_0_1_349
*1585 FILLER_0_1_357
*1586 FILLER_0_1_364
*1587 FILLER_0_1_376
*1588 FILLER_0_1_388
*1589 FILLER_0_1_39
*1590 FILLER_0_1_393
*1591 FILLER_0_1_405
*1592 FILLER_0_1_413
*1593 FILLER_0_1_425
*1594 FILLER_0_1_437
*1595 FILLER_0_1_445
*1596 FILLER_0_1_449
*1597 FILLER_0_1_457
*1598 FILLER_0_1_464
*1599 FILLER_0_1_476
*1600 FILLER_0_1_488
*1601 FILLER_0_1_500
*1602 FILLER_0_1_505
*1603 FILLER_0_1_51
*1604 FILLER_0_1_514
*1605 FILLER_0_1_526
*1606 FILLER_0_1_538
*1607 FILLER_0_1_55
*1608 FILLER_0_1_550
*1609 FILLER_0_1_558
*1610 FILLER_0_1_564
*1611 FILLER_0_1_568
*1612 FILLER_0_1_57
*1613 FILLER_0_1_580
*1614 FILLER_0_1_592
*1615 FILLER_0_1_604
*1616 FILLER_0_1_617
*1617 FILLER_0_1_69
*1618 FILLER_0_1_92
*1619 FILLER_0_20_119
*1620 FILLER_0_20_129